*SPEF "IEEE 1481-1998"
*DESIGN "cacheBank"
*DATE "Tue May 14 23:25:14 2019"
*VENDOR "Cadence Design Systems, Inc."
*PROGRAM "Encounter"
*VERSION "14.23-s044_1"
*DESIGN_FLOW "COUPLING C" "PIN_CAP NONE" "NAME_SCOPE LOCAL"
*DIVIDER /
*DELIMITER :
*BUS_DELIMITER []
*T_UNIT 1 NS
*C_UNIT 1 PF
*R_UNIT 1 OHM
*L_UNIT 1 HENRY

// MMMC spef file for corner 'typical_rc'

*NAME_MAP

*1 clk__L1_N0
*2 clk
*3 reset
*4 cacheDataIn_A[31]
*5 cacheDataIn_A[30]
*6 cacheDataIn_A[29]
*7 cacheDataIn_A[28]
*8 cacheDataIn_A[27]
*9 cacheDataIn_A[26]
*10 cacheDataIn_A[25]
*11 cacheDataIn_A[24]
*12 cacheDataIn_A[23]
*13 cacheDataIn_A[22]
*14 cacheDataIn_A[21]
*15 cacheDataIn_A[20]
*16 cacheDataIn_A[19]
*17 cacheDataIn_A[18]
*18 cacheDataIn_A[17]
*19 cacheDataIn_A[16]
*20 cacheDataIn_A[15]
*21 cacheDataIn_A[14]
*22 cacheDataIn_A[13]
*23 cacheDataIn_A[12]
*24 cacheDataIn_A[11]
*25 cacheDataIn_A[10]
*26 cacheDataIn_A[9]
*27 cacheDataIn_A[8]
*28 cacheDataIn_A[7]
*29 cacheDataIn_A[6]
*30 cacheDataIn_A[5]
*31 cacheDataIn_A[4]
*32 cacheDataIn_A[3]
*33 cacheDataIn_A[2]
*34 cacheDataIn_A[1]
*35 cacheDataIn_A[0]
*36 cacheAddressIn_A[7]
*37 cacheAddressIn_A[6]
*38 cacheAddressIn_A[5]
*39 cacheAddressIn_A[4]
*40 cacheAddressIn_A[3]
*41 cacheAddressIn_A[2]
*42 cacheAddressIn_A[1]
*43 cacheAddressIn_A[0]
*44 memWrite_A
*45 cacheDataOut_A[31]
*46 cacheDataOut_A[30]
*47 cacheDataOut_A[29]
*48 cacheDataOut_A[28]
*49 cacheDataOut_A[27]
*50 cacheDataOut_A[26]
*51 cacheDataOut_A[25]
*52 cacheDataOut_A[24]
*53 cacheDataOut_A[23]
*54 cacheDataOut_A[22]
*55 cacheDataOut_A[21]
*56 cacheDataOut_A[20]
*57 cacheDataOut_A[19]
*58 cacheDataOut_A[18]
*59 cacheDataOut_A[17]
*60 cacheDataOut_A[16]
*61 cacheDataOut_A[15]
*62 cacheDataOut_A[14]
*63 cacheDataOut_A[13]
*64 cacheDataOut_A[12]
*65 cacheDataOut_A[11]
*66 cacheDataOut_A[10]
*67 cacheDataOut_A[9]
*68 cacheDataOut_A[8]
*69 cacheDataOut_A[7]
*70 cacheDataOut_A[6]
*71 cacheDataOut_A[5]
*72 cacheDataOut_A[4]
*73 cacheDataOut_A[3]
*74 cacheDataOut_A[2]
*75 cacheDataOut_A[1]
*76 cacheDataOut_A[0]
*77 cacheDataIn_B[31]
*78 cacheDataIn_B[30]
*79 cacheDataIn_B[29]
*80 cacheDataIn_B[28]
*81 cacheDataIn_B[27]
*82 cacheDataIn_B[26]
*83 cacheDataIn_B[25]
*84 cacheDataIn_B[24]
*85 cacheDataIn_B[23]
*86 cacheDataIn_B[22]
*87 cacheDataIn_B[21]
*88 cacheDataIn_B[20]
*89 cacheDataIn_B[19]
*90 cacheDataIn_B[18]
*91 cacheDataIn_B[17]
*92 cacheDataIn_B[16]
*93 cacheDataIn_B[15]
*94 cacheDataIn_B[14]
*95 cacheDataIn_B[13]
*96 cacheDataIn_B[12]
*97 cacheDataIn_B[11]
*98 cacheDataIn_B[10]
*99 cacheDataIn_B[9]
*100 cacheDataIn_B[8]
*101 cacheDataIn_B[7]
*102 cacheDataIn_B[6]
*103 cacheDataIn_B[5]
*104 cacheDataIn_B[4]
*105 cacheDataIn_B[3]
*106 cacheDataIn_B[2]
*107 cacheDataIn_B[1]
*108 cacheDataIn_B[0]
*109 cacheAddressIn_B[7]
*110 cacheAddressIn_B[6]
*111 cacheAddressIn_B[5]
*112 cacheAddressIn_B[4]
*113 cacheAddressIn_B[3]
*114 cacheAddressIn_B[2]
*115 cacheAddressIn_B[1]
*116 cacheAddressIn_B[0]
*117 memWrite_B
*118 cacheDataOut_B[31]
*119 cacheDataOut_B[30]
*120 cacheDataOut_B[29]
*121 cacheDataOut_B[28]
*122 cacheDataOut_B[27]
*123 cacheDataOut_B[26]
*124 cacheDataOut_B[25]
*125 cacheDataOut_B[24]
*126 cacheDataOut_B[23]
*127 cacheDataOut_B[22]
*128 cacheDataOut_B[21]
*129 cacheDataOut_B[20]
*130 cacheDataOut_B[19]
*131 cacheDataOut_B[18]
*132 cacheDataOut_B[17]
*133 cacheDataOut_B[16]
*134 cacheDataOut_B[15]
*135 cacheDataOut_B[14]
*136 cacheDataOut_B[13]
*137 cacheDataOut_B[12]
*138 cacheDataOut_B[11]
*139 cacheDataOut_B[10]
*140 cacheDataOut_B[9]
*141 cacheDataOut_B[8]
*142 cacheDataOut_B[7]
*143 cacheDataOut_B[6]
*144 cacheDataOut_B[5]
*145 cacheDataOut_B[4]
*146 cacheDataOut_B[3]
*147 cacheDataOut_B[2]
*148 cacheDataOut_B[1]
*149 cacheDataOut_B[0]
*150 FE_UNCONNECTED_0
*151 FE_UNCONNECTED_1
*152 FE_UNCONNECTED_2
*153 FE_UNCONNECTED_3
*154 FE_UNCONNECTED_4
*155 FE_UNCONNECTED_5
*156 portA_writtenTo
*157 portB_writtenTo
*158 clk__L1_I0
*159 Memory


*PORTS

*2 I *C 335 0
*3 I *C 343 0
*4 I *C 759 0
*5 I *C 734 0
*6 I *C 721 0
*7 I *C 696 0
*8 I *C 682 0
*9 I *C 657 0
*10 I *C 644 0
*11 I *C 619 0
*12 I *C 606 0
*13 I *C 580 0
*14 I *C 567 0
*15 I *C 542 0
*16 I *C 529 0
*17 I *C 503 0
*18 I *C 490 0
*19 I *C 465 0
*20 I *C 326 0
*21 I *C 301 0
*22 I *C 288 0
*23 I *C 262 0
*24 I *C 249 0
*25 I *C 224 0
*26 I *C 211 0
*27 I *C 186 0
*28 I *C 172 0
*29 I *C 147 0
*30 I *C 134 0
*31 I *C 108 0
*32 I *C 95 0
*33 I *C 70 0
*34 I *C 57 0
*35 I *C 32 0
*36 I *C 410 0
*37 I *C 413 0
*38 I *C 416 0
*39 I *C 419 0
*40 I *C 422 0
*41 I *C 425 0
*42 I *C 428 0
*43 I *C 431 0
*44 I *C 434 0
*45 O *C 757 0
*46 O *C 736 0
*47 O *C 719 0
*48 O *C 698 0
*49 O *C 680 0
*50 O *C 659 0
*51 O *C 642 0
*52 O *C 621 0
*53 O *C 604 0
*54 O *C 582 0
*55 O *C 565 0
*56 O *C 544 0
*57 O *C 527 0
*58 O *C 505 0
*59 O *C 488 0
*60 O *C 467 0
*61 O *C 324 0
*62 O *C 303 0
*63 O *C 286 0
*64 O *C 264 0
*65 O *C 247 0
*66 O *C 226 0
*67 O *C 209 0
*68 O *C 188 0
*69 O *C 170 0
*70 O *C 149 0
*71 O *C 132 0
*72 O *C 110 0
*73 O *C 93 0
*74 O *C 72 0
*75 O *C 55 0
*76 O *C 34 0
*156 O *C 761 0
*77 I *C 753 0
*78 I *C 740 0
*79 I *C 715 0
*80 I *C 702 0
*81 I *C 676 0
*82 I *C 663 0
*83 I *C 638 0
*84 I *C 625 0
*85 I *C 600 0
*86 I *C 586 0
*87 I *C 561 0
*88 I *C 548 0
*89 I *C 523 0
*90 I *C 509 0
*91 I *C 484 0
*92 I *C 471 0
*93 I *C 320 0
*94 I *C 307 0
*95 I *C 282 0
*96 I *C 268 0
*97 I *C 243 0
*98 I *C 230 0
*99 I *C 205 0
*100 I *C 192 0
*101 I *C 166 0
*102 I *C 153 0
*103 I *C 128 0
*104 I *C 114 0
*105 I *C 89 0
*106 I *C 76 0
*107 I *C 51 0
*108 I *C 38 0
*109 I *C 370 0
*110 I *C 367 0
*111 I *C 364 0
*112 I *C 361 0
*113 I *C 358 0
*114 I *C 355 0
*115 I *C 352 0
*116 I *C 349 0
*117 I *C 341 0
*118 O *C 755 0
*119 O *C 738 0
*120 O *C 717 0
*121 O *C 700 0
*122 O *C 678 0
*123 O *C 661 0
*124 O *C 640 0
*125 O *C 623 0
*126 O *C 602 0
*127 O *C 584 0
*128 O *C 563 0
*129 O *C 546 0
*130 O *C 525 0
*131 O *C 507 0
*132 O *C 486 0
*133 O *C 469 0
*134 O *C 322 0
*135 O *C 305 0
*136 O *C 284 0
*137 O *C 266 0
*138 O *C 245 0
*139 O *C 228 0
*140 O *C 207 0
*141 O *C 190 0
*142 O *C 168 0
*143 O *C 151 0
*144 O *C 130 0
*145 O *C 112 0
*146 O *C 91 0
*147 O *C 74 0
*148 O *C 53 0
*149 O *C 36 0
*157 O *C 763 0


*D_NET *35 0.00242256

*CONN
*P *35 I *C 32 0 *L 0
*I *159:DA[0] I *C 32.42 21.93 *L 0 *D CacheMem

*CAP
1 *35 2.36e-05
2 *159:DA[0] 0.00118768
3 *35:2 0.00121128

*RES
1 *35:2 *159:DA[0] 8.00875
2 *35 *35:2 0.15645
*END

*D_NET *76 0.00254912

*CONN
*P *76 O *C 34 0 *L 0.005
*I *159:QA[0] O *C 34.64 21.93 *L 0 *D CacheMem

*CAP
1 *76 3.371e-05
2 *159:QA[0] 0.00124085
3 *76:2 0.00127456

*RES
1 *76 *76:2 0.2235
2 *76:2 *159:QA[0] 8.00875
*END

*D_NET *149 0.00286394

*CONN
*P *149 O *C 36 0 *L 0.005
*I *159:QB[0] O *C 37.24 21.93 *L 0 *D CacheMem

*CAP
1 *149 0.0004241
2 *159:QB[0] 0.00054526
3 *149:2 0.0005598
4 *149:3 0.00043864
5 *149:4 0.00010732
6 *149:5 0.00010732
7 *159:QB[0] *108:2 0.0002786
8 *149:2 *108 0.0002786
9 *149:3 *108:2 6.215e-05
10 *149 *108 6.215e-05

*RES
1 *149 *149:3 3.09175
2 *149:5 *149:3 6
3 *149:5 *149:4 0.735
4 *149:2 *149:4 6
5 *149:2 *159:QB[0] 4.917
*END

*D_NET *107 0.00244502

*CONN
*P *107 I *C 51 0 *L 0
*I *159:DB[1] I *C 51.62 21.93 *L 0 *D CacheMem

*CAP
1 *107 3.483e-05
2 *159:DB[1] 0.00118768
3 *107:2 0.00122251

*RES
1 *107:2 *159:DB[1] 8.00875
2 *107 *107:2 0.23095
*END

*D_NET *148 0.00259864

*CONN
*P *148 O *C 53 0 *L 0.005
*I *159:QB[1] O *C 53.84 21.93 *L 0 *D CacheMem

*CAP
1 *148 4.494e-05
2 *159:QB[1] 0.00125438
3 *148:2 0.00129932

*RES
1 *148 *148:2 0.298
2 *148:2 *159:QB[1] 8.00875
*END

*D_NET *75 0.00357182

*CONN
*P *75 O *C 55 0 *L 0.005
*I *159:QA[1] O *C 56.44 21.93 *L 0 *D CacheMem

*CAP
1 *75 0.00041775
2 *159:QA[1] 0.00048042
3 *75:2 0.00049496
4 *75:3 0.00043229
5 *75:4 0.0001149
6 *75:5 0.0001149
7 *159:QA[1] *34:2 0.00069915
8 *75:2 *34 0.00069915
9 *75:3 *34:2 5.915e-05
10 *75 *34 5.915e-05

*RES
1 *75 *75:3 2.94275
2 *75:5 *75:3 6
3 *75:5 *75:4 0.84
4 *75:2 *75:4 6
5 *75:2 *159:QA[1] 5.066
*END

*D_NET *33 0.0024675

*CONN
*P *33 I *C 70 0 *L 0
*I *159:DA[2] I *C 70.82 21.93 *L 0 *D CacheMem

*CAP
1 *33 4.607e-05
2 *159:DA[2] 0.00118768
3 *33:2 0.00123375

*RES
1 *33:2 *159:DA[2] 8.00875
2 *33 *33:2 0.30545
*END

*D_NET *74 0.00262366

*CONN
*P *74 O *C 72 0 *L 0.005
*I *159:QA[2] O *C 73.04 21.93 *L 0 *D CacheMem

*CAP
1 *74 5.618e-05
2 *159:QA[2] 0.00125565
3 *74:2 0.00131183

*RES
1 *74 *74:2 0.3725
2 *74:2 *159:QA[2] 8.00875
*END

*D_NET *147 0.0027533

*CONN
*P *147 O *C 74 0 *L 0.005
*I *159:QB[2] O *C 75.64 21.93 *L 0 *D CacheMem

*CAP
1 *147 0.00047794
2 *159:QB[2] 0.00075461
3 *147:2 0.00076915
4 *147:3 0.00049248
5 *147:4 0.00012956
6 *147:5 0.00012956

*RES
1 *147 *147:3 3.09175
2 *147:5 *147:3 6
3 *147:5 *147:4 0.945
4 *147:2 *147:4 6
5 *147:2 *159:QB[2] 4.917
*END

*D_NET *106 0.00264774

*CONN
*P *106 I *C 76 0 *L 0
*I *159:DB[2] I *C 77.86 21.93 *L 0 *D CacheMem

*CAP
1 *106 0.00041431
2 *159:DB[2] 0.00077135
3 *106:2 0.00078589
4 *106:3 0.00042885
5 *106:4 0.00012367
6 *106:5 0.00012367

*RES
1 *106:2 *159:DB[2] 5.215
2 *106:5 *106:2 6
3 *106:4 *106:5 0.945
4 *106:3 *106:4 6
5 *106 *106:3 2.79375
*END

*D_NET *105 0.00273944

*CONN
*P *105 I *C 89 0 *L 0
*I *159:DB[3] I *C 90.02 21.93 *L 0 *D CacheMem

*CAP
1 *105 0.00035815
2 *159:DB[3] 0.00055202
3 *105:2 0.00037269
4 *105:3 9.228e-05
5 *105:4 9.228e-05
6 *105:5 0.00056656
7 *159:DB[3] *146:2 0.00029657
8 *105:5 *146 0.00029657
9 *105:2 *146:2 5.616e-05
10 *105 *146 5.616e-05

*RES
1 *105:5 *159:DB[3] 5.215
2 *105:4 *105:5 6
3 *105:3 *105:4 0.63
4 *105:2 *105:3 6
5 *105 *105:2 2.79375
*END

*D_NET *32 0.00282272

*CONN
*P *32 I *C 95 0 *L 0
*I *159:DA[3] I *C 97.06 21.93 *L 0 *D CacheMem

*CAP
1 *32 0.0005027
2 *159:DA[3] 0.00068296
3 *32:2 0.00051724
4 *32:3 0.00021116
5 *32:4 0.00021116
6 *32:5 0.0006975

*RES
1 *32:5 *159:DA[3] 4.619
2 *32:4 *32:5 6
3 *32:3 *32:4 1.05
4 *32:2 *32:3 6
5 *32 *32:2 3.38975
*END

*D_NET *31 0.0027576

*CONN
*P *31 I *C 108 0 *L 0
*I *159:DA[4] I *C 109.22 21.93 *L 0 *D CacheMem

*CAP
1 *31 0.00039635
2 *159:DA[4] 0.00051984
3 *31:2 0.00041089
4 *31:3 0.00010732
5 *31:4 0.00010732
6 *31:5 0.00053438
7 *159:DA[4] *72:2 0.0002786
8 *31:5 *72 0.0002786
9 *31:2 *72:2 6.215e-05
10 *31 *72 6.215e-05

*RES
1 *31:5 *159:DA[4] 4.917
2 *31:4 *31:5 6
3 *31:3 *31:4 0.735
4 *31:2 *31:3 6
5 *31 *31:2 3.09175
*END

*D_NET *145 0.0027449

*CONN
*P *145 O *C 112 0 *L 0.005
*I *159:QB[4] O *C 114.04 21.93 *L 0 *D CacheMem

*CAP
1 *145 0.00043339
2 *159:QB[4] 0.00077511
3 *145:2 0.00078965
4 *145:3 0.00014941
5 *145:4 0.00014941
6 *145:5 0.00044793

*RES
1 *145 *145:5 2.94275
2 *145:4 *145:5 6
3 *145:4 *145:3 1.155
4 *145:2 *145:3 6
5 *145:2 *159:QB[4] 5.066
*END

*D_NET *104 0.00258164

*CONN
*P *104 I *C 114 0 *L 0
*I *159:DB[4] I *C 116.26 21.93 *L 0 *D CacheMem

*CAP
1 *104 0.00039221
2 *159:DB[4] 0.00079344
3 *104:2 0.00080798
4 *104:3 0.00040675
5 *104:4 9.063e-05
6 *104:5 9.063e-05

*RES
1 *104:2 *159:DB[4] 5.364
2 *104:4 *104:2 6
3 *104:5 *104:4 1.155
4 *104:3 *104:5 6
5 *104 *104:3 2.64475
*END

*D_NET *103 0.00242256

*CONN
*P *103 I *C 128 0 *L 0
*I *159:DB[5] I *C 128.42 21.93 *L 0 *D CacheMem

*CAP
1 *103 2.36e-05
2 *159:DB[5] 0.00118768
3 *103:2 0.00121128

*RES
1 *103:2 *159:DB[5] 8.00875
2 *103 *103:2 0.15645
*END

*D_NET *144 0.00254912

*CONN
*P *144 O *C 130 0 *L 0.005
*I *159:QB[5] O *C 130.64 21.93 *L 0 *D CacheMem

*CAP
1 *144 3.371e-05
2 *159:QB[5] 0.00124085
3 *144:2 0.00127456

*RES
1 *144 *144:2 0.2235
2 *144:2 *159:QB[5] 8.00875
*END

*D_NET *71 0.00286394

*CONN
*P *71 O *C 132 0 *L 0.005
*I *159:QA[5] O *C 133.24 21.93 *L 0 *D CacheMem

*CAP
1 *71 0.0004241
2 *159:QA[5] 0.00054526
3 *71:2 0.0005598
4 *71:3 0.00043864
5 *71:4 0.00010732
6 *71:5 0.00010732
7 *159:QA[5] *30:2 0.0002786
8 *71:2 *30 0.0002786
9 *71:3 *30:2 6.215e-05
10 *71 *30 6.215e-05

*RES
1 *71 *71:3 3.09175
2 *71:5 *71:3 6
3 *71:5 *71:4 0.735
4 *71:2 *71:4 6
5 *71:2 *159:QA[5] 4.917
*END

*D_NET *29 0.00244502

*CONN
*P *29 I *C 147 0 *L 0
*I *159:DA[6] I *C 147.62 21.93 *L 0 *D CacheMem

*CAP
1 *29 3.483e-05
2 *159:DA[6] 0.00118768
3 *29:2 0.00122251

*RES
1 *29:2 *159:DA[6] 8.00875
2 *29 *29:2 0.23095
*END

*D_NET *70 0.00259864

*CONN
*P *70 O *C 149 0 *L 0.005
*I *159:QA[6] O *C 149.84 21.93 *L 0 *D CacheMem

*CAP
1 *70 4.494e-05
2 *159:QA[6] 0.00125438
3 *70:2 0.00129932

*RES
1 *70 *70:2 0.298
2 *70:2 *159:QA[6] 8.00875
*END

*D_NET *143 0.00357182

*CONN
*P *143 O *C 151 0 *L 0.005
*I *159:QB[6] O *C 152.44 21.93 *L 0 *D CacheMem

*CAP
1 *143 0.00041775
2 *159:QB[6] 0.00048042
3 *143:2 0.00049496
4 *143:3 0.00043229
5 *143:4 0.0001149
6 *143:5 0.0001149
7 *159:QB[6] *102:2 0.00069915
8 *143:2 *102 0.00069915
9 *143:3 *102:2 5.915e-05
10 *143 *102 5.915e-05

*RES
1 *143 *143:3 2.94275
2 *143:5 *143:3 6
3 *143:5 *143:4 0.84
4 *143:2 *143:4 6
5 *143:2 *159:QB[6] 5.066
*END

*D_NET *101 0.0024675

*CONN
*P *101 I *C 166 0 *L 0
*I *159:DB[7] I *C 166.82 21.93 *L 0 *D CacheMem

*CAP
1 *101 4.607e-05
2 *159:DB[7] 0.00118768
3 *101:2 0.00123375

*RES
1 *101:2 *159:DB[7] 8.00875
2 *101 *101:2 0.30545
*END

*D_NET *142 0.00262366

*CONN
*P *142 O *C 168 0 *L 0.005
*I *159:QB[7] O *C 169.04 21.93 *L 0 *D CacheMem

*CAP
1 *142 5.618e-05
2 *159:QB[7] 0.00125565
3 *142:2 0.00131183

*RES
1 *142 *142:2 0.3725
2 *142:2 *159:QB[7] 8.00875
*END

*D_NET *69 0.0027533

*CONN
*P *69 O *C 170 0 *L 0.005
*I *159:QA[7] O *C 171.64 21.93 *L 0 *D CacheMem

*CAP
1 *69 0.00047794
2 *159:QA[7] 0.00075461
3 *69:2 0.00076915
4 *69:3 0.00049248
5 *69:4 0.00012956
6 *69:5 0.00012956

*RES
1 *69 *69:3 3.09175
2 *69:5 *69:3 6
3 *69:5 *69:4 0.945
4 *69:2 *69:4 6
5 *69:2 *159:QA[7] 4.917
*END

*D_NET *28 0.00264774

*CONN
*P *28 I *C 172 0 *L 0
*I *159:DA[7] I *C 173.86 21.93 *L 0 *D CacheMem

*CAP
1 *28 0.00041431
2 *159:DA[7] 0.00077135
3 *28:2 0.00078589
4 *28:3 0.00042885
5 *28:4 0.00012367
6 *28:5 0.00012367

*RES
1 *28:2 *159:DA[7] 5.215
2 *28:5 *28:2 6
3 *28:4 *28:5 0.945
4 *28:3 *28:4 6
5 *28 *28:3 2.79375
*END

*D_NET *27 0.00237538

*CONN
*P *27 I *C 186 0 *L 0
*I *159:DA[8] I *C 186.02 21.93 *L 0 *D CacheMem

*CAP
1 *27 0.00118769
2 *159:DA[8] 0.00118769

*RES
1 *27 *159:DA[8] 8.00875
*END

*D_NET *68 0.0024807

*CONN
*P *68 O *C 188 0 *L 0.005
*I *159:QA[8] O *C 188.24 21.93 *L 0 *D CacheMem

*CAP
1 *68 0.00065743
2 *159:QA[8] 0.00057168
3 *68:2 0.00058292
4 *68:3 0.00066867

*RES
1 *68 *68:3 4.28375
2 *68:3 *68:2 0.0745
3 *68:2 *159:QA[8] 3.725
*END

*D_NET *141 0.00255258

*CONN
*P *141 O *C 190 0 *L 0.005
*I *159:QB[8] O *C 190.84 21.93 *L 0 *D CacheMem

*CAP
1 *141 4.719e-05
2 *159:QB[8] 0.0012291
3 *141:2 0.00127629

*RES
1 *141 *141:2 0.3129
2 *141:2 *159:QB[8] 8.00875
*END

*D_NET *100 0.00248772

*CONN
*P *100 I *C 192 0 *L 0
*I *159:DB[8] I *C 193.06 21.93 *L 0 *D CacheMem

*CAP
1 *100 5.618e-05
2 *159:DB[8] 0.00118768
3 *100:2 0.00124386

*RES
1 *100:2 *159:DB[8] 8.00875
2 *100 *100:2 0.3725
*END

*D_NET *99 0.0024001

*CONN
*P *99 I *C 205 0 *L 0
*I *159:DB[9] I *C 205.22 21.93 *L 0 *D CacheMem

*CAP
1 *99 0.00061318
2 *159:DB[9] 0.00057451
3 *99:2 0.00062554
4 *99:3 0.00058687

*RES
1 *99:3 *159:DB[9] 3.874
2 *99:2 *99:3 0.08195
3 *99 *99:2 4.13475
*END

*D_NET *140 0.00251148

*CONN
*P *140 O *C 207 0 *L 0.005
*I *159:QB[9] O *C 207.44 21.93 *L 0 *D CacheMem

*CAP
1 *140 0.00063872
2 *159:QB[9] 0.00059455
3 *140:2 0.00061702
4 *140:3 0.00066119

*RES
1 *140 *140:3 4.13475
2 *140:3 *140:2 0.149
3 *140:2 *159:QB[9] 3.874
*END

*D_NET *67 0.00283062

*CONN
*P *67 O *C 209 0 *L 0.005
*I *159:QA[9] O *C 210.04 21.93 *L 0 *D CacheMem

*CAP
1 *67 0.00037724
2 *159:QA[9] 0.00057852
3 *67:2 0.00059306
4 *67:3 0.00039178
5 *67:4 9.228e-05
6 *67:5 9.228e-05
7 *159:QA[9] *26:2 0.00029657
8 *67:2 *26 0.00029657
9 *67:3 *26:2 5.616e-05
10 *67 *26 5.616e-05

*RES
1 *67 *67:3 2.79375
2 *67:5 *67:3 6
3 *67:5 *67:4 0.63
4 *67:2 *67:4 6
5 *67:2 *159:QA[9] 5.215
*END

*D_NET *25 0.00242256

*CONN
*P *25 I *C 224 0 *L 0
*I *159:DA[10] I *C 224.42 21.93 *L 0 *D CacheMem

*CAP
1 *25 2.36e-05
2 *159:DA[10] 0.00118768
3 *25:2 0.00121128

*RES
1 *25:2 *159:DA[10] 8.00875
2 *25 *25:2 0.15645
*END

*D_NET *66 0.00254912

*CONN
*P *66 O *C 226 0 *L 0.005
*I *159:QA[10] O *C 226.64 21.93 *L 0 *D CacheMem

*CAP
1 *66 3.371e-05
2 *159:QA[10] 0.00124085
3 *66:2 0.00127456

*RES
1 *66 *66:2 0.2235
2 *66:2 *159:QA[10] 8.00875
*END

*D_NET *139 0.00286394

*CONN
*P *139 O *C 228 0 *L 0.005
*I *159:QB[10] O *C 229.24 21.93 *L 0 *D CacheMem

*CAP
1 *139 0.0004241
2 *159:QB[10] 0.00054526
3 *139:2 0.0005598
4 *139:3 0.00043864
5 *139:4 0.00010732
6 *139:5 0.00010732
7 *159:QB[10] *98:2 0.0002786
8 *139:2 *98 0.0002786
9 *139:3 *98:2 6.215e-05
10 *139 *98 6.215e-05

*RES
1 *139 *139:3 3.09175
2 *139:5 *139:3 6
3 *139:5 *139:4 0.735
4 *139:2 *139:4 6
5 *139:2 *159:QB[10] 4.917
*END

*D_NET *97 0.00244502

*CONN
*P *97 I *C 243 0 *L 0
*I *159:DB[11] I *C 243.62 21.93 *L 0 *D CacheMem

*CAP
1 *97 3.483e-05
2 *159:DB[11] 0.00118768
3 *97:2 0.00122251

*RES
1 *97:2 *159:DB[11] 8.00875
2 *97 *97:2 0.23095
*END

*D_NET *138 0.00259864

*CONN
*P *138 O *C 245 0 *L 0.005
*I *159:QB[11] O *C 245.84 21.93 *L 0 *D CacheMem

*CAP
1 *138 4.494e-05
2 *159:QB[11] 0.00125438
3 *138:2 0.00129932

*RES
1 *138 *138:2 0.298
2 *138:2 *159:QB[11] 8.00875
*END

*D_NET *65 0.00357182

*CONN
*P *65 O *C 247 0 *L 0.005
*I *159:QA[11] O *C 248.44 21.93 *L 0 *D CacheMem

*CAP
1 *65 0.00041775
2 *159:QA[11] 0.00048042
3 *65:2 0.00049496
4 *65:3 0.00043229
5 *65:4 0.0001149
6 *65:5 0.0001149
7 *159:QA[11] *24:2 0.00069915
8 *65:2 *24 0.00069915
9 *65:3 *24:2 5.915e-05
10 *65 *24 5.915e-05

*RES
1 *65 *65:3 2.94275
2 *65:5 *65:3 6
3 *65:5 *65:4 0.84
4 *65:2 *65:4 6
5 *65:2 *159:QA[11] 5.066
*END

*D_NET *23 0.0024675

*CONN
*P *23 I *C 262 0 *L 0
*I *159:DA[12] I *C 262.82 21.93 *L 0 *D CacheMem

*CAP
1 *23 4.607e-05
2 *159:DA[12] 0.00118768
3 *23:2 0.00123375

*RES
1 *23:2 *159:DA[12] 8.00875
2 *23 *23:2 0.30545
*END

*D_NET *64 0.00262366

*CONN
*P *64 O *C 264 0 *L 0.005
*I *159:QA[12] O *C 265.04 21.93 *L 0 *D CacheMem

*CAP
1 *64 5.618e-05
2 *159:QA[12] 0.00125565
3 *64:2 0.00131183

*RES
1 *64 *64:2 0.3725
2 *64:2 *159:QA[12] 8.00875
*END

*D_NET *137 0.0027533

*CONN
*P *137 O *C 266 0 *L 0.005
*I *159:QB[12] O *C 267.64 21.93 *L 0 *D CacheMem

*CAP
1 *137 0.00047794
2 *159:QB[12] 0.00075461
3 *137:2 0.00076915
4 *137:3 0.00049248
5 *137:4 0.00012956
6 *137:5 0.00012956

*RES
1 *137 *137:3 3.09175
2 *137:5 *137:3 6
3 *137:5 *137:4 0.945
4 *137:2 *137:4 6
5 *137:2 *159:QB[12] 4.917
*END

*D_NET *96 0.00264774

*CONN
*P *96 I *C 268 0 *L 0
*I *159:DB[12] I *C 269.86 21.93 *L 0 *D CacheMem

*CAP
1 *96 0.00041431
2 *159:DB[12] 0.00077135
3 *96:2 0.00078589
4 *96:3 0.00042885
5 *96:4 0.00012367
6 *96:5 0.00012367

*RES
1 *96:2 *159:DB[12] 5.215
2 *96:5 *96:2 6
3 *96:4 *96:5 0.945
4 *96:3 *96:4 6
5 *96 *96:3 2.79375
*END

*D_NET *95 0.00237538

*CONN
*P *95 I *C 282 0 *L 0
*I *159:DB[13] I *C 282.02 21.93 *L 0 *D CacheMem

*CAP
1 *95 0.00118769
2 *159:DB[13] 0.00118769

*RES
1 *95 *159:DB[13] 8.00875
*END

*D_NET *136 0.0024807

*CONN
*P *136 O *C 284 0 *L 0.005
*I *159:QB[13] O *C 284.24 21.93 *L 0 *D CacheMem

*CAP
1 *136 0.00065743
2 *159:QB[13] 0.00057168
3 *136:2 0.00058292
4 *136:3 0.00066867

*RES
1 *136 *136:3 4.28375
2 *136:3 *136:2 0.0745
3 *136:2 *159:QB[13] 3.725
*END

*D_NET *63 0.00255258

*CONN
*P *63 O *C 286 0 *L 0.005
*I *159:QA[13] O *C 286.84 21.93 *L 0 *D CacheMem

*CAP
1 *63 4.719e-05
2 *159:QA[13] 0.0012291
3 *63:2 0.00127629

*RES
1 *63 *63:2 0.3129
2 *63:2 *159:QA[13] 8.00875
*END

*D_NET *22 0.00248772

*CONN
*P *22 I *C 288 0 *L 0
*I *159:DA[13] I *C 289.06 21.93 *L 0 *D CacheMem

*CAP
1 *22 5.618e-05
2 *159:DA[13] 0.00118768
3 *22:2 0.00124386

*RES
1 *22:2 *159:DA[13] 8.00875
2 *22 *22:2 0.3725
*END

*D_NET *21 0.0024001

*CONN
*P *21 I *C 301 0 *L 0
*I *159:DA[14] I *C 301.22 21.93 *L 0 *D CacheMem

*CAP
1 *21 0.00061318
2 *159:DA[14] 0.00057451
3 *21:2 0.00062554
4 *21:3 0.00058687

*RES
1 *21:3 *159:DA[14] 3.874
2 *21:2 *21:3 0.08195
3 *21 *21:2 4.13475
*END

*D_NET *62 0.00251148

*CONN
*P *62 O *C 303 0 *L 0.005
*I *159:QA[14] O *C 303.44 21.93 *L 0 *D CacheMem

*CAP
1 *62 0.00063872
2 *159:QA[14] 0.00059455
3 *62:2 0.00061702
4 *62:3 0.00066119

*RES
1 *62 *62:3 4.13475
2 *62:3 *62:2 0.149
3 *62:2 *159:QA[14] 3.874
*END

*D_NET *135 0.00283062

*CONN
*P *135 O *C 305 0 *L 0.005
*I *159:QB[14] O *C 306.04 21.93 *L 0 *D CacheMem

*CAP
1 *135 0.00037724
2 *159:QB[14] 0.00057852
3 *135:2 0.00059306
4 *135:3 0.00039178
5 *135:4 9.228e-05
6 *135:5 9.228e-05
7 *159:QB[14] *94:2 0.00029657
8 *135:2 *94 0.00029657
9 *135:3 *94:2 5.616e-05
10 *135 *94 5.616e-05

*RES
1 *135 *135:3 2.79375
2 *135:5 *135:3 6
3 *135:5 *135:4 0.63
4 *135:2 *135:4 6
5 *135:2 *159:QB[14] 5.215
*END

*D_NET *93 0.00242256

*CONN
*P *93 I *C 320 0 *L 0
*I *159:DB[15] I *C 320.42 21.93 *L 0 *D CacheMem

*CAP
1 *93 2.36e-05
2 *159:DB[15] 0.00118768
3 *93:2 0.00121128

*RES
1 *93:2 *159:DB[15] 8.00875
2 *93 *93:2 0.15645
*END

*D_NET *134 0.00254912

*CONN
*P *134 O *C 322 0 *L 0.005
*I *159:QB[15] O *C 322.64 21.93 *L 0 *D CacheMem

*CAP
1 *134 3.371e-05
2 *159:QB[15] 0.00124085
3 *134:2 0.00127456

*RES
1 *134 *134:2 0.2235
2 *134:2 *159:QB[15] 8.00875
*END

*D_NET *61 0.00286394

*CONN
*P *61 O *C 324 0 *L 0.005
*I *159:QA[15] O *C 325.24 21.93 *L 0 *D CacheMem

*CAP
1 *61 0.0004241
2 *159:QA[15] 0.00054526
3 *61:2 0.0005598
4 *61:3 0.00043864
5 *61:4 0.00010732
6 *61:5 0.00010732
7 *159:QA[15] *20:2 0.0002786
8 *61:2 *20 0.0002786
9 *61:3 *20:2 6.215e-05
10 *61 *20 6.215e-05

*RES
1 *61 *61:3 3.09175
2 *61:5 *61:3 6
3 *61:5 *61:4 0.735
4 *61:2 *61:4 6
5 *61:2 *159:QA[15] 4.917
*END

*D_NET *117 0.00232688

*CONN
*P *117 I *C 341 0 *L 0
*I *159:WENB I *C 341.74 21.93 *L 0 *D CacheMem

*CAP
1 *117 4.157e-05
2 *159:WENB 0.00112187
3 *117:2 0.00116344

*RES
1 *117:2 *159:WENB 8.00875
2 *117 *117:2 0.27565
*END

*D_NET *116 0.00253552

*CONN
*P *116 I *C 349 0 *L 0
*I *159:AB[0] I *C 350.1 21.93 *L 0 *D CacheMem

*CAP
1 *116 0.00041911
2 *159:AB[0] 0.00074183
3 *116:2 0.00043365
4 *116:3 9.228e-05
5 *116:4 9.228e-05
6 *116:5 0.00075637

*RES
1 *116:5 *159:AB[0] 5.215
2 *116:4 *116:5 6
3 *116:3 *116:4 0.63
4 *116:2 *116:3 6
5 *116 *116:2 2.79375
*END

*D_NET *115 0.00341924

*CONN
*P *115 I *C 352 0 *L 0
*I *159:AB[1] I *C 356.46 21.93 *L 0 *D CacheMem

*CAP
1 *115 0.00050328
2 *159:AB[1] 0.00067733
3 *115:2 0.00051782
4 *115:3 0.00051447
5 *115:4 0.00051447
6 *115:5 0.00069187

*RES
1 *115:5 *159:AB[1] 4.619
2 *115:4 *115:5 6
3 *115:3 *115:4 2.415
4 *115:2 *115:3 6
5 *115 *115:2 3.38975
*END

*D_NET *114 0.0031221

*CONN
*P *114 I *C 355 0 *L 0
*I *159:AB[2] I *C 359.38 21.93 *L 0 *D CacheMem

*CAP
1 *114 0.00049082
2 *159:AB[2] 0.00071949
3 *114:2 0.00073403
4 *114:3 0.00050536
5 *114:4 0.0003362
6 *114:5 0.0003362

*RES
1 *114:2 *159:AB[2] 4.768
2 *114:4 *114:2 6
3 *114:5 *114:4 2.31
4 *114:3 *114:5 6
5 *114 *114:3 3.24075
*END

*D_NET *113 0.00419212

*CONN
*P *113 I *C 358 0 *L 0
*I *159:AB[3] I *C 365.74 21.93 *L 0 *D CacheMem

*CAP
1 *113 0.00051395
2 *159:AB[3] 0.00069529
3 *113:2 0.00052849
4 *113:3 0.00087228
5 *113:4 0.00087228
6 *113:5 0.00070983

*RES
1 *113:5 *159:AB[3] 4.619
2 *113:3 *113:5 6
3 *113:4 *113:3 4.095
4 *113:2 *113:4 6
5 *113 *113:2 3.38975
*END

*D_NET *111 0.00400818

*CONN
*P *111 I *C 364 0 *L 0
*I *159:AB[5] I *C 372.1 21.93 *L 0 *D CacheMem

*CAP
1 *111 0.00044072
2 *159:AB[5] 0.00070649
3 *111:2 0.00048914
4 *111:3 0.00048914
5 *111:4 0.00045526
6 *111:5 0.00072103
7 *111:4 *110:2 3.879e-05
8 *111 *110 3.879e-05
9 *111:2 *110:3 0.00031441
10 *111:3 *110:4 0.00031441

*RES
1 *111:5 *159:AB[5] 4.768
2 *111:2 *111:5 6
3 *111:3 *111:2 4.305
4 *111:4 *111:3 6
5 *111 *111:4 3.24075
*END

*D_NET *110 0.00407488

*CONN
*P *110 I *C 367 0 *L 0
*I *159:AB[6] I *C 378.46 21.93 *L 0 *D CacheMem

*CAP
1 *110 0.00042947
2 *159:AB[6] 0.00069704
3 *110:2 0.00044401
4 *110:3 0.00054319
5 *110:4 0.00054319
6 *110:5 0.00071158
7 *110:2 *111:4 3.879e-05
8 *110 *111 3.879e-05
9 *110:3 *111:2 0.00031441
10 *110:4 *111:3 0.00031441

*RES
1 *110:5 *159:AB[6] 4.917
2 *110:3 *110:5 6
3 *110:4 *110:3 6.09
4 *110:2 *110:4 6
5 *110 *110:2 3.09175
*END

*D_NET *73 0.00270972

*CONN
*P *73 O *C 93 0 *L 0.005
*I *159:QA[3] O *C 94.84 21.93 *L 0 *D CacheMem

*CAP
1 *73 0.00054897
2 *159:QA[3] 0.00066116
3 *73:2 0.0006757
4 *73:3 0.00056351
5 *73:4 0.00013019
6 *73:5 0.00013019

*RES
1 *73 *73:3 3.68775
2 *73:5 *73:3 6
3 *73:5 *73:4 0.745
4 *73:2 *73:4 6
5 *73:2 *159:QA[3] 4.321
*END

*D_NET *108 0.00278972

*CONN
*P *108 I *C 38 0 *L 0
*I *159:DB[0] I *C 39.46 21.93 *L 0 *D CacheMem

*CAP
1 *108 0.00089511
2 *159:DB[0] 4.216e-05
3 *108:2 0.00090965
4 *108:3 0.0001023
5 *108:4 0.0001023
6 *108:5 5.67e-05
7 *108:2 *159:QB[0] 0.0002786
8 *108 *149:2 0.0002786
9 *108:2 *149:3 6.215e-05
10 *108 *149 6.215e-05

*RES
1 *108:5 *159:DB[0] 0.298
2 *108:4 *108:5 6
3 *108:3 *108:4 0.5215
4 *108:2 *108:3 6
5 *108 *108:2 7.71075
*END

*D_NET *34 0.00348046

*CONN
*P *34 I *C 57 0 *L 0
*I *159:DA[1] I *C 58.66 21.93 *L 0 *D CacheMem

*CAP
1 *34 0.00081039
2 *159:DA[1] 4.216e-05
3 *34:2 0.00082493
4 *34:3 0.00011484
5 *34:4 0.00011484
6 *34:5 5.67e-05
7 *34:2 *159:QA[1] 0.00069915
8 *34 *75:2 0.00069915
9 *34:2 *75:3 5.915e-05
10 *34 *75 5.915e-05

*RES
1 *34:5 *159:DA[1] 0.298
2 *34:4 *34:5 6
3 *34:3 *34:4 0.596
4 *34:2 *34:3 6
5 *34 *34:2 7.71075
*END

*D_NET *146 0.00286768

*CONN
*P *146 O *C 91 0 *L 0.005
*I *159:QB[3] O *C 92.24 21.93 *L 0 *D CacheMem

*CAP
1 *146 0.0009331
2 *159:QB[3] 4.37e-05
3 *146:2 0.00094764
4 *146:3 5.824e-05
5 *146:4 8.977e-05
6 *146:5 8.977e-05
7 *146:2 *159:DB[3] 0.00029657
8 *146 *105:5 0.00029657
9 *146:2 *105:2 5.616e-05
10 *146 *105 5.616e-05

*RES
1 *146 *146:2 7.71075
2 *146:5 *146:2 6
3 *146:5 *146:4 0.447
4 *146:3 *146:4 6
5 *146:3 *159:QB[3] 0.298
*END

*D_NET *72 0.00287758

*CONN
*P *72 O *C 110 0 *L 0.005
*I *159:QA[4] O *C 111.44 21.93 *L 0 *D CacheMem

*CAP
1 *72 0.0009375
2 *159:QA[4] 4.37e-05
3 *72:2 0.00095204
4 *72:3 5.824e-05
5 *72:4 0.0001023
6 *72:5 0.0001023
7 *72:2 *159:DA[4] 0.0002786
8 *72 *31:5 0.0002786
9 *72:2 *31:2 6.215e-05
10 *72 *31 6.215e-05

*RES
1 *72 *72:2 7.71075
2 *72:5 *72:2 6
3 *72:5 *72:4 0.5215
4 *72:3 *72:4 6
5 *72:3 *159:QA[4] 0.298
*END

*D_NET *30 0.00278972

*CONN
*P *30 I *C 134 0 *L 0
*I *159:DA[5] I *C 135.46 21.93 *L 0 *D CacheMem

*CAP
1 *30 0.00089511
2 *159:DA[5] 4.216e-05
3 *30:2 0.00090965
4 *30:3 0.0001023
5 *30:4 0.0001023
6 *30:5 5.67e-05
7 *30:2 *159:QA[5] 0.0002786
8 *30 *71:2 0.0002786
9 *30:2 *71:3 6.215e-05
10 *30 *71 6.215e-05

*RES
1 *30:5 *159:DA[5] 0.298
2 *30:4 *30:5 6
3 *30:3 *30:4 0.5215
4 *30:2 *30:3 6
5 *30 *30:2 7.71075
*END

*D_NET *102 0.00348046

*CONN
*P *102 I *C 153 0 *L 0
*I *159:DB[6] I *C 154.66 21.93 *L 0 *D CacheMem

*CAP
1 *102 0.00081039
2 *159:DB[6] 4.216e-05
3 *102:2 0.00082493
4 *102:3 0.00011484
5 *102:4 0.00011484
6 *102:5 5.67e-05
7 *102:2 *159:QB[6] 0.00069915
8 *102 *143:2 0.00069915
9 *102:2 *143:3 5.915e-05
10 *102 *143 5.915e-05

*RES
1 *102:5 *159:DB[6] 0.298
2 *102:4 *102:5 6
3 *102:3 *102:4 0.596
4 *102:2 *102:3 6
5 *102 *102:2 7.71075
*END

*D_NET *26 0.00277658

*CONN
*P *26 I *C 211 0 *L 0
*I *159:DA[9] I *C 212.26 21.93 *L 0 *D CacheMem

*CAP
1 *26 0.00088909
2 *159:DA[9] 4.216e-05
3 *26:2 0.00090363
4 *26:3 8.977e-05
5 *26:4 8.977e-05
6 *26:5 5.67e-05
7 *26:2 *159:QA[9] 0.00029657
8 *26 *67:2 0.00029657
9 *26:2 *67:3 5.616e-05
10 *26 *67 5.616e-05

*RES
1 *26:5 *159:DA[9] 0.298
2 *26:4 *26:5 6
3 *26:3 *26:4 0.447
4 *26:2 *26:3 6
5 *26 *26:2 7.71075
*END

*D_NET *98 0.00278972

*CONN
*P *98 I *C 230 0 *L 0
*I *159:DB[10] I *C 231.46 21.93 *L 0 *D CacheMem

*CAP
1 *98 0.00089511
2 *159:DB[10] 4.216e-05
3 *98:2 0.00090965
4 *98:3 0.0001023
5 *98:4 0.0001023
6 *98:5 5.67e-05
7 *98:2 *159:QB[10] 0.0002786
8 *98 *139:2 0.0002786
9 *98:2 *139:3 6.215e-05
10 *98 *139 6.215e-05

*RES
1 *98:5 *159:DB[10] 0.298
2 *98:4 *98:5 6
3 *98:3 *98:4 0.5215
4 *98:2 *98:3 6
5 *98 *98:2 7.71075
*END

*D_NET *24 0.00348046

*CONN
*P *24 I *C 249 0 *L 0
*I *159:DA[11] I *C 250.66 21.93 *L 0 *D CacheMem

*CAP
1 *24 0.00081039
2 *159:DA[11] 4.216e-05
3 *24:2 0.00082493
4 *24:3 0.00011484
5 *24:4 0.00011484
6 *24:5 5.67e-05
7 *24:2 *159:QA[11] 0.00069915
8 *24 *65:2 0.00069915
9 *24:2 *65:3 5.915e-05
10 *24 *65 5.915e-05

*RES
1 *24:5 *159:DA[11] 0.298
2 *24:4 *24:5 6
3 *24:3 *24:4 0.596
4 *24:2 *24:3 6
5 *24 *24:2 7.71075
*END

*D_NET *94 0.00277658

*CONN
*P *94 I *C 307 0 *L 0
*I *159:DB[14] I *C 308.26 21.93 *L 0 *D CacheMem

*CAP
1 *94 0.00088909
2 *159:DB[14] 4.216e-05
3 *94:2 0.00090363
4 *94:3 8.977e-05
5 *94:4 8.977e-05
6 *94:5 5.67e-05
7 *94:2 *159:QB[14] 0.00029657
8 *94 *135:2 0.00029657
9 *94:2 *135:3 5.616e-05
10 *94 *135 5.616e-05

*RES
1 *94:5 *159:DB[14] 0.298
2 *94:4 *94:5 6
3 *94:3 *94:4 0.447
4 *94:2 *94:3 6
5 *94 *94:2 7.71075
*END

*D_NET *20 0.00278972

*CONN
*P *20 I *C 326 0 *L 0
*I *159:DA[15] I *C 327.46 21.93 *L 0 *D CacheMem

*CAP
1 *20 0.00089511
2 *159:DA[15] 4.216e-05
3 *20:2 0.00090965
4 *20:3 0.0001023
5 *20:4 0.0001023
6 *20:5 5.67e-05
7 *20:2 *159:QA[15] 0.0002786
8 *20 *61:2 0.0002786
9 *20:2 *61:3 6.215e-05
10 *20 *61 6.215e-05

*RES
1 *20:5 *159:DA[15] 0.298
2 *20:4 *20:5 6
3 *20:3 *20:4 0.5215
4 *20:2 *20:3 6
5 *20 *20:2 7.71075
*END

*D_NET *112 0.0034972

*CONN
*P *112 I *C 361 0 *L 0
*I *159:AB[4] I *C 369.18 21.93 *L 0 *D CacheMem

*CAP
1 *112 0.00117296
2 *159:AB[4] 4.504e-05
3 *112:2 0.0011875
4 *112:3 5.958e-05
5 *112:4 0.00051606
6 *112:5 0.00051606

*RES
1 *112:3 *159:AB[4] 0.298
2 *112:5 *112:3 6
3 *112:4 *112:5 2.98
4 *112:2 *112:4 6
5 *112 *112:2 7.71075
*END

*D_NET *109 0.00393774

*CONN
*P *109 I *C 370 0 *L 0
*I *159:AB[7] I *C 381.9 21.93 *L 0 *D CacheMem

*CAP
1 *109 0.00115643
2 *159:AB[7] 4.36e-05
3 *109:2 0.00117097
4 *109:3 5.814e-05
5 *109:4 0.0007543
6 *109:5 0.0007543

*RES
1 *109:3 *159:AB[7] 0.298
2 *109:5 *109:3 6
3 *109:4 *109:5 4.3955
4 *109:2 *109:4 6
5 *109 *109:2 7.71075
*END

*D_NET *2 0.00907347

*CONN