*SPEF "IEEE 1481-1998"
*DESIGN "lfsr1"
*DATE "Wed Feb 27 22:15:21 2019"
*VENDOR "Cadence Design Systems, Inc."
*PROGRAM "Encounter"
*VERSION "14.23-s044_1"
*DESIGN_FLOW "COUPLING C" "PIN_CAP NONE" "NAME_SCOPE LOCAL"
*DIVIDER /
*DELIMITER :
*BUS_DELIMITER []
*T_UNIT 1 NS
*C_UNIT 1 PF
*R_UNIT 1 OHM
*L_UNIT 1 HENRY

// MMMC spef file for corner 'typical_rc'

*NAME_MAP

*1 clk__L1_N0
*2 lfsr_out[27]
*3 lfsr_out[26]
*4 lfsr_out[25]
*5 lfsr_out[24]
*6 lfsr_out[23]
*7 lfsr_out[22]
*8 lfsr_out[21]
*9 lfsr_out[20]
*10 lfsr_out[19]
*11 lfsr_out[18]
*12 lfsr_out[17]
*13 lfsr_out[16]
*14 lfsr_out[15]
*15 lfsr_out[14]
*16 lfsr_out[13]
*17 lfsr_out[12]
*18 lfsr_out[11]
*19 lfsr_out[10]
*20 lfsr_out[9]
*21 lfsr_out[8]
*22 lfsr_out[7]
*23 lfsr_out[6]
*24 lfsr_out[5]
*25 lfsr_out[4]
*26 lfsr_out[3]
*27 lfsr_out[2]
*28 lfsr_out[1]
*29 lfsr_out[0]
*30 clk
*31 resetn
*32 n3
*33 n6
*34 n7
*35 clk__L1_I0
*36 lfsr_out_reg\[1\]
*37 lfsr_out_reg\[2\]
*38 lfsr_out_reg\[3\]
*39 lfsr_out_reg\[4\]
*40 lfsr_out_reg\[5\]
*41 lfsr_out_reg\[6\]
*42 lfsr_out_reg\[7\]
*43 lfsr_out_reg\[8\]
*44 lfsr_out_reg\[9\]
*45 lfsr_out_reg\[10\]
*46 lfsr_out_reg\[11\]
*47 lfsr_out_reg\[12\]
*48 lfsr_out_reg\[13\]
*49 lfsr_out_reg\[14\]
*50 lfsr_out_reg\[15\]
*51 lfsr_out_reg\[17\]
*52 lfsr_out_reg\[18\]
*53 lfsr_out_reg\[19\]
*54 lfsr_out_reg\[20\]
*55 lfsr_out_reg\[21\]
*56 lfsr_out_reg\[22\]
*57 lfsr_out_reg\[24\]
*58 lfsr_out_reg\[25\]
*59 lfsr_out_reg\[26\]
*60 lfsr_out_reg\[27\]
*61 lfsr_out_reg\[23\]
*62 lfsr_out_reg\[0\]
*63 lfsr_out_reg\[16\]
*64 U6
*65 U7
*66 U17


*PORTS

*30 I *C 0 11
*31 I *C 0 15
*2 O *C 52.5 0
*3 O *C 51 0
*4 O *C 49.5 0
*5 O *C 48 0
*6 O *C 46.5 0
*7 O *C 45 0
*8 O *C 43.5 0
*9 O *C 42 0
*10 O *C 40.5 0
*11 O *C 39 0
*12 O *C 37.5 0
*13 O *C 36 0
*14 O *C 34.5 0
*15 O *C 33 0
*16 O *C 31.5 0
*17 O *C 30 0
*18 O *C 28.5 0
*19 O *C 27 0
*20 O *C 25.5 0
*21 O *C 24 0
*22 O *C 22.5 0
*23 O *C 21 0
*24 O *C 19.5 0
*25 O *C 18 0
*26 O *C 16.5 0
*27 O *C 15 0
*28 O *C 13.5 0
*29 O *C 12 0


*D_NET *24 0.00233403

*CONN
*P *24 O *C 19.5 0 *L 0.005
*I *41:D I *C 19.4 15.8 *L 0.000904 *D DFFRXLTS
*I *40:Q O *C 19.8 19.8 *L 0 *D DFFRXLTS

*CAP
1 *24 0.00053646
2 *41:D 5.309e-05
3 *40:Q 5.309e-05
4 *24:3 0.0003716
5 *24:4 0.00054219
6 *24:5 0.00010706
7 *24:6 0.00011545
8 *24:7 9.154e-05
9 *24:8 0.00046355

*RES
1 *24:5 *40:Q 6
2 *24:6 *24:5 0.596
3 *24:7 *24:6 0.149
4 *24:8 *41:D 6
5 *24:8 *24:7 0.447
6 *24 *24:4 3.38975
7 *24:3 *24:8 2.384
8 *24:3 *24:4 0.03725
*END

*D_NET *22 0.00180321

*CONN
*P *22 O *C 22.5 0 *L 0.005
*I *43:D I *C 22.6 11.4 *L 0.000904 *D DFFRXLTS
*I *42:Q O *C 19.8 12.6 *L 0 *D DFFRXLTS

*CAP
1 *22 0.00038176
2 *43:D 5.309e-05
3 *42:Q 0.00011807
4 *22:3 0.00029566
5 *22:4 0.00039896
6 *22:5 0.00015641
7 *22:6 3.747e-05
8 *22:7 0.00032432
9 *22:8 3.747e-05

*RES
1 *42:Q *22:5 1.05
2 *22:6 *22:5 6
3 *22:8 *43:D 6
4 *22:6 *22:7 0.149
5 *22:7 *22:8 0.149
6 *22 *22:4 2.34675
7 *22:3 *22:7 1.788
8 *22:3 *22:4 0.11175
*END

*D_NET *34 0.00085602

*CONN
*I *66:B I *C 45 29.8 *L 0.00235 *D XNOR2X1TS
*I *64:Y O *C 44.6 21.8 *L 0 *D XOR2XLTS

*CAP
1 *66:B 5.309e-05
2 *64:Y 5.309e-05
3 *34:2 0.00013277
4 *34:3 0.00014079
5 *34:4 0.00024215
6 *34:5 0.00023413

*RES
1 *34:5 *66:B 6
2 *34:4 *34:5 1.49
3 *34:3 *34:4 0.149
4 *34:2 *34:3 1.043
5 *64:Y *34:2 6
*END

*D_NET *16 0.00621323

*CONN
*P *16 O *C 31.5 0 *L 0.005
*I *49:D I *C 21 33 *L 0.000904 *D DFFRXLTS
*I *48:Q O *C 22.2 29 *L 0 *D DFFRXLTS

*CAP
1 *16 4.282e-05
2 *49:D 5.309e-05
3 *48:Q 7.085e-05
4 *16:3 0.00120238
5 *16:4 0.00119399
6 *16:5 0.0002263
7 *16:6 0.00054678
8 *16:7 0.00054678
9 *16:8 5.736e-05
10 *16:9 0.00010034
11 *16:10 0.00040868
12 *16:11 0.00019078
13 *16:3 *18:3 0.00026218
14 *16:4 *18:4 0.00026218
15 *16:3 *18:5 0.00030588
16 *16:4 *18:6 0.00030588
17 *16:3 *23:3 0.00021848
18 *16:4 *23 0.00021848

*RES
1 *16 *16:8 0.26075
2 *16:7 *16:8 6
3 *16:6 *16:7 3.76225
4 *16:9 *48:Q 0.63
5 *16:11 *49:D 6
6 *16:4 *16:6 6
7 *16:10 *16:9 6
8 *16:10 *16:11 1.043
9 *16:4 *16:3 9.387
10 *16:5 *16:10 1.49
11 *16:5 *16:3 0.149
*END

*D_NET *25 0.00398306

*CONN
*P *25 O *C 18 0 *L 0.005
*I *40:D I *C 11.4 18.6 *L 0.000904 *D DFFRXLTS
*I *39:Q O *C 10.6 21.8 *L 0 *D DFFRXLTS

*CAP
1 *25 0.00023855
2 *40:D 5.309e-05
3 *39:Q 5.309e-05
4 *25:3 0.00025309
5 *25:4 0.00069263
6 *25:5 0.00030109
7 *25:6 0.00030109
8 *25:7 0.00028347
9 *25:8 0.00099288
10 *25:9 6.04e-05
11 *25:6 *23:4 0.00014829
12 *25:5 *23:5 0.00014829
13 *25:8 *23:6 6.291e-05
14 *25:4 *23:7 6.291e-05
15 *25:8 *23:7 0.00014379
16 *25:4 *23:8 0.00014379
17 *25:8 *23:9 2.185e-05
18 *25:4 *23:10 2.185e-05

*RES
1 *25 *25:3 1.45275
2 *25:7 *39:Q 6
3 *25:9 *40:D 6
4 *25:6 *25:3 6
5 *25:8 *25:7 1.192
6 *25:8 *25:9 0.298
7 *25:5 *25:6 2.7565
8 *25:4 *25:8 5.364
9 *25:4 *25:5 6
*END

*D_NET *23 0.00358489

*CONN
*P *23 O *C 21 0 *L 0.005
*I *42:D I *C 11.4 11.4 *L 0.000904 *D DFFRXLTS
*I *41:Q O *C 11 14.6 *L 0 *D DFFRXLTS

*CAP
1 *23 0.00016951
2 *42:D 5.309e-05
3 *41:Q 5.309e-05
4 *23:3 0.00018405
5 *23:4 0.00043809
6 *23:5 0.00043809
7 *23:6 0.00016116
8 *23:7 0.00048869
9 *23:8 0.00033593
10 *23:9 3.208e-05
11 *23:10 4.047e-05
12 *23:4 *25:6 0.00014829
13 *23:5 *25:5 0.00014829
14 *23:6 *25:8 6.291e-05
15 *23:7 *25:4 6.291e-05
16 *23:7 *25:8 0.00014379
17 *23:8 *25:4 0.00014379
18 *23:9 *25:8 2.185e-05
19 *23:10 *25:4 2.185e-05
20 *23:3 *16:3 0.00021848
21 *23 *16:4 0.00021848

*RES
1 *23:9 *41:Q 6
2 *23:10 *23:9 0.149
3 *23 *23:3 1.75075
4 *23:10 *23:6 0.149
5 *23:4 *23:3 6
6 *23:7 *42:D 6
7 *23:7 *23:6 1.043
8 *23:5 *23:4 3.576
9 *23:8 *23:7 2.384
10 *23:8 *23:5 6
*END

*D_NET *11 0.00228055

*CONN
*P *11 O *C 39 0 *L 0.005
*I *53:D I *C 42.2 11.4 *L 0.000904 *D DFFRXLTS
*I *52:Q O *C 43 14.6 *L 0 *D DFFRXLTS

*CAP
1 *11 0.00035034
2 *53:D 5.309e-05
3 *52:Q 5.309e-05
4 *11:3 0.00031342
5 *11:4 0.00018351
6 *11:5 0.00018351
7 *11:6 0.00036488
8 *11:7 0.00018753
9 *11:8 0.00021811
10 *11:9 0.00037307

*RES
1 *11 *11:6 2.19775
2 *11:7 *52:Q 6
3 *11:5 *11:6 6
4 *11:8 *11:7 1.192
5 *11:5 *11:4 1.192
6 *11:9 *53:D 6
7 *11:9 *11:8 0.298
8 *11:3 *11:4 6
9 *11:3 *11:9 1.937
*END

*D_NET *17 0.00445899

*CONN
*P *17 O *C 30 0 *L 0.005
*I *48:D I *C 30.6 30.2 *L 0.000904 *D DFFRXLTS
*I *47:Q O *C 29.4 27 *L 0 *D DFFRXLTS

*CAP
1 *17 0.00055293
2 *48:D 5.309e-05
3 *47:Q 2.567e-05
4 *17:3 0.00056747
5 *17:4 0.00034908
6 *17:5 0.00074063
7 *17:6 0.00070931
8 *17:7 5.892e-05
9 *17:8 5.892e-05
10 *17:9 6.401e-05
11 *17:10 6.04e-05
12 *17:11 0.00050608
13 *17:12 0.00017154
14 *17:7 *21:4 5.462e-05
15 *17:8 *21:5 5.462e-05
16 *17:5 *21:6 8.739e-05
17 *17:6 *21:7 8.739e-05
18 *17:5 *21:7 6.555e-05
19 *17:6 *21:8 6.555e-05
20 *17:5 *21:9 6.291e-05
21 *17:6 *21:10 6.291e-05

*RES
1 *17 *17:3 3.53875
2 *17:8 *17:3 6
3 *47:Q *17:9 0.21
4 *17:8 *17:7 0.5215
5 *17:10 *17:9 6
6 *17:12 *48:D 6
7 *17:6 *17:7 6
8 *17:10 *17:11 0.298
9 *17:11 *17:12 1.192
10 *17:6 *17:5 4.619
11 *17:4 *17:11 1.788
12 *17:4 *17:5 0.298
*END

*D_NET *21 0.00324417

*CONN
*P *21 O *C 24 0 *L 0.005
*I *44:D I *C 30.6 15.8 *L 0.000904 *D DFFRXLTS
*I *43:Q O *C 31 12.6 *L 0 *D DFFRXLTS

*CAP
1 *21 0.00060267
2 *44:D 5.309e-05
3 *43:Q 5.309e-05
4 *21:3 0.00061721
5 *21:4 0.0003909
6 *21:5 0.0003909
7 *21:6 7.708e-05
8 *21:7 0.00012383
9 *21:8 5.515e-05
10 *21:9 0.00016546
11 *21:10 0.00017385
12 *21:4 *17:7 5.462e-05
13 *21:5 *17:8 5.462e-05
14 *21:6 *17:5 8.739e-05
15 *21:7 *17:6 8.739e-05
16 *21:7 *17:5 6.555e-05
17 *21:8 *17:6 6.555e-05
18 *21:9 *17:5 6.291e-05
19 *21:10 *17:6 6.291e-05

*RES
1 *21:9 *44:D 6
2 *21 *21:3 3.68775
3 *21:10 *21:9 1.043
4 *21:5 *21:3 6
5 *21:10 *21:6 0.149
6 *21:5 *21:4 2.6075
7 *21:7 *43:Q 6
8 *21:7 *21:6 0.596
9 *21:8 *21:4 6
10 *21:8 *21:7 0.447
*END

*D_NET *30 0.00517838

*CONN
*P *30 I *C 0 11 *L 0
*I *35:A I *C 30.2 26.2 *L 0.0239 *D CLKINVX16TS

*CAP
1 *30 0.00164117
2 *35:A 2.316e-05
3 *30:2 0.00089842
4 *30:3 0.00089842
5 *30:4 0.00165571
6 *30:5 6.15e-05

*RES
1 *30:5 *35:A 0.21
2 *30:2 *30:5 6
3 *30:3 *30:2 5.662
4 *30:4 *30:3 6
5 *30 *30:4 10.9888
*END

*D_NET *10 0.00333937

*CONN
*P *10 O *C 40.5 0 *L 0.005
*I *54:D I *C 43.8 15.8 *L 0.000904 *D DFFRXLTS
*I *53:Q O *C 33.8 12.6 *L 0 *D DFFRXLTS

*CAP
1 *10 0.00052902
2 *54:D 5.309e-05
3 *53:Q 5.309e-05
4 *10:3 0.00014369
5 *10:4 0.00014369
6 *10:5 0.00054594
7 *10:6 0.00017735
8 *10:7 0.00017973
9 *10:8 8.722e-05
10 *10:9 0.00025026
11 *10:10 0.00037462
12 *10:11 0.00012437
13 *10:11 *13:6 0.00010924
14 *10:10 *13:7 0.00010924
15 *10:10 *13:6 0.00022941
16 *10:9 *13:7 0.00022941

*RES
1 *10:3 *54:D 6
2 *10:8 *53:Q 6
3 *10:4 *10:3 1.192
4 *10 *10:5 3.38975
5 *10:9 *10:8 6
6 *10:11 *10:4 6
7 *10:7 *10:5 0.11175
8 *10:9 *10:10 2.384
9 *10:10 *10:11 1.341
10 *10:7 *10:6 1.192
11 *10:6 *10:10 6
*END

*D_NET *18 0.00470014

*CONN
*P *18 O *C 28.5 0 *L 0.005
*I *47:D I *C 21 25.8 *L 0.000904 *D DFFRXLTS
*I *46:Q O *C 21.8 19.8 *L 0 *D DFFRXLTS

*CAP
1 *18 0.00077102
2 *47:D 5.309e-05
3 *46:Q 0.00010445
4 *18:3 8.68e-05
5 *18:4 8.68e-05
6 *18:5 0.00021758
7 *18:6 0.00021758
8 *18:7 0.00078556
9 *18:8 0.00032013
10 *18:9 0.00032013
11 *18:10 7.278e-05
12 *18:11 5.976e-05
13 *18:8 *20:6 0.0001584
14 *18:9 *20:7 0.0001584
15 *18:3 *20:3 5.392e-05
16 *18:4 *20:4 5.392e-05
17 *18:3 *20:8 2.185e-05
18 *18:4 *20:9 2.185e-05
19 *18:3 *16:3 0.00026218
20 *18:4 *16:4 0.00026218
21 *18:5 *16:3 0.00030588
22 *18:6 *16:4 0.00030588

*RES
1 *18:5 *47:D 6
2 *18 *18:7 5.02875
3 *18:6 *18:5 2.086
4 *18:8 *18:7 6
5 *18:11 *18:6 6
6 *18:9 *18:8 2.49575
7 *18:10 *18:11 0.21
8 *18:4 *18:9 6
9 *18:10 *46:Q 0.42
10 *18:4 *18:3 1.788
11 *46:Q *18:3 6
*END

*D_NET *20 0.00341502

*CONN
*P *20 O *C 25.5 0 *L 0.005
*I *45:D I *C 22.6 23 *L 0.000904 *D DFFRXLTS
*I *44:Q O *C 22.2 14.6 *L 0 *D DFFRXLTS

*CAP
1 *20 0.00083924
2 *45:D 5.309e-05
3 *44:Q 5.309e-05
4 *20:3 0.00034363
5 *20:4 0.00044421
6 *20:5 0.00085378
7 *20:6 7.987e-05
8 *20:7 7.987e-05
9 *20:8 5.078e-05
10 *20:9 4.239e-05
11 *20:10 0.00010673
12 *20:6 *18:8 0.0001584
13 *20:7 *18:9 0.0001584
14 *20:3 *18:3 5.392e-05
15 *20:4 *18:4 5.392e-05
16 *20:8 *18:3 2.185e-05
17 *20:9 *18:4 2.185e-05

*RES
1 *20:9 *44:Q 6
2 *20 *20:5 5.17775
3 *20:9 *20:8 0.149
4 *20:3 *45:D 6
5 *20:6 *20:5 6
6 *20:8 *20:4 0.149
7 *20:4 *20:3 2.533
8 *20:7 *20:6 1.08025
9 *20:10 *20:4 0.745
10 *20:10 *20:7 6
*END

*D_NET *12 0.0028804

*CONN
*P *12 O *C 37.5 0 *L 0.005
*I *52:D I *C 34.6 15.8 *L 0.000904 *D DFFRXLTS
*I *51:Q O *C 33.8 19.8 *L 0 *D DFFRXLTS

*CAP
1 *12 0.00089301
2 *52:D 5.309e-05
3 *51:Q 5.309e-05
4 *12:3 0.00090755
5 *12:4 0.00019634
6 *12:5 0.00019634
7 *12:6 0.00024463
8 *12:7 0.00027595
9 *12:8 6.04e-05

*RES
1 *12:6 *51:Q 6
2 *12:7 *12:6 1.043
3 *12 *12:3 5.77375
4 *12:7 *12:8 0.298
5 *12:8 *52:D 6
6 *12:5 *12:3 6
7 *12:4 *12:8 6
8 *12:4 *12:5 1.08025
*END

*D_NET *13 0.00589751

*CONN
*P *13 O *C 36 0 *L 0.005
*I *65:A I *C 53 16.6 *L 0.00206 *D XOR2XLTS
*I *63:Q O *C 42.2 21.8 *L 0 *D DFFRXLTS
*I *51:D I *C 42.2 18.6 *L 0.000904 *D DFFRXLTS

*CAP
1 *13 0.00075882
2 *65:A 5.309e-05
3 *63:Q 5.309e-05
4 *51:D 5.309e-05
5 *13:4 0.00033087
6 *13:5 0.00020607
7 *13:6 0.00021804
8 *13:7 0.00021804
9 *13:8 0.00077336
10 *13:9 0.0003956
11 *13:10 0.0003956
12 *13:11 6.424e-05
13 *13:12 6.424e-05
14 *13:13 0.0001579
15 *13:14 0.0002827
16 *13:10 *33:2 0.00052436
17 *13:9 *33:3 0.00052436
18 *13:13 *33:4 4.515e-05
19 *13:14 *33:5 4.515e-05
20 *13:14 *33:4 2.822e-05
21 *13:4 *33:5 2.822e-05
22 *13:6 *10:11 0.00010924
23 *13:7 *10:10 0.00010924
24 *13:6 *10:10 0.00022941
25 *13:7 *10:9 0.00022941

*RES
1 *13:12 *65:A 6
2 *13:11 *13:12 0.149
3 *13 *13:8 4.73075
4 *13:13 *63:Q 6
5 *13:10 *13:11 6
6 *13:7 *13:8 6
7 *13:14 *51:D 6
8 *13:14 *13:13 1.192
9 *13:9 *13:10 4.023
10 *13:7 *13:6 2.3095
11 *13:4 *13:14 0.894
12 *13:4 *13:9 6
13 *13:5 *13:6 6
14 *13:5 *13:4 1.192
*END

*D_NET *33 0.00290834

*CONN
*I *65:Y O *C 54.6 14.6 *L 0 *D XOR2XLTS
*I *64:B I *C 43.4 22.2 *L 0.00162 *D XOR2XLTS

*CAP
1 *65:Y 5.309e-05
2 *64:B 5.309e-05
3 *33:2 0.00043899
4 *33:3 0.00043899
5 *33:4 0.00027495
6 *33:5 0.00027495
7 *33:6 8.941e-05
8 *33:7 8.941e-05
9 *33:2 *13:10 0.00052436
10 *33:3 *13:9 0.00052436
11 *33:4 *13:13 4.515e-05
12 *33:5 *13:14 4.515e-05
13 *33:4 *13:14 2.822e-05
14 *33:5 *13:4 2.822e-05

*RES
1 *33:4 *64:B 6
2 *33:5 *33:4 2.086
3 *33:3 *33:5 6
4 *33:3 *33:2 4.172
5 *33:7 *33:2 6
6 *33:6 *33:7 0.298
7 *65:Y *33:6 6
*END

*D_NET *19 0.00352267

*CONN
*P *19 O *C 27 0 *L 0.005
*I *46:D I *C 30.2 18.6 *L 0.000904 *D DFFRXLTS
*I *45:Q O *C 31 21.8 *L 0 *D DFFRXLTS

*CAP
1 *19 0.00108746
2 *46:D 5.309e-05
3 *45:Q 5.309e-05
4 *19:3 0.00020171
5 *19:4 0.0002101
6 *19:5 0.00011015
7 *19:6 0.00011015
8 *19:7 0.00012687
9 *19:8 8.941e-05
10 *19:9 0.001102
11 *19:10 0.00018932
12 *19:11 0.00018932

*RES
1 *19:3 *45:Q 6
2 *19:4 *19:3 0.745
3 *19 *19:9 6.51875
4 *19:5 *19:4 0.149
5 *19:11 *19:9 6
6 *19:6 *19:5 0.447
7 *19:11 *19:10 1.192
8 *19:7 *46:D 6
9 *19:7 *19:6 0.149
10 *19:8 *19:10 6
11 *19:8 *19:7 0.298
*END

*D_NET *9 0.00539947

*CONN
*P *9 O *C 42 0 *L 0.005
*I *55:D I *C 46.2 18.6 *L 0.000904 *D DFFRXLTS
*I *54:Q O *C 52.2 14.6 *L 0 *D DFFRXLTS

*CAP
1 *9 7.846e-05
2 *55:D 5.309e-05
3 *54:Q 5.309e-05
4 *9:3 0.00059699
5 *9:4 0.00059699
6 *9:5 9.3e-05
7 *9:6 0.00035644
8 *9:7 0.00035644
9 *9:8 0.00032276
10 *9:9 0.00043671
11 *9:10 0.00011396
12 *9:11 8.722e-05
13 *9:10 *2:3 0.00021848
14 *9:9 *2:4 0.00021848
15 *9:9 *2:3 0.0006773
16 *9:8 *2:4 0.0006773
17 *9:10 *3:3 5.643e-05
18 *9:9 *3 5.643e-05
19 *9:9 *3:3 0.00017495
20 *9:8 *3 0.00017495

*RES
1 *9:11 *55:D 6
2 *9:7 *9:11 6
3 *9 *9:5 0.70775
4 *9:7 *9:6 2.235
5 *9:4 *9:5 6
6 *9:10 *9:6 6
7 *9:4 *9:3 3.7995
8 *9:9 *54:Q 6
9 *9:9 *9:10 1.49
10 *9:8 *9:3 6
11 *9:8 *9:9 4.619
*END

*D_NET *27 0.00437715

*CONN
*P *27 O *C 15 0 *L 0.005
*I *38:D I *C 11 25.8 *L 0.000904 *D DFFRXLTS
*I *37:Q O *C 10.6 29 *L 0 *D DFFRXLTS

*CAP
1 *27 0.00122318
2 *38:D 5.309e-05
3 *37:Q 5.309e-05
4 *27:3 0.00062776
5 *27:4 0.00050858
6 *27:5 0.0002309
7 *27:6 0.0002309
8 *27:7 0.00123772
9 *27:8 3.798e-05
10 *27:9 4.637e-05
11 *27:10 0.00012758

*RES
1 *27:8 *37:Q 6
2 *27:9 *27:8 0.149
3 *27 *27:7 6.96575
4 *27:9 *27:10 0.149
5 *27:6 *27:7 6
6 *27:3 *38:D 6
7 *27:3 *27:10 1.043
8 *27:5 *27:6 1.49
9 *27:4 *27:3 2.533
10 *27:4 *27:5 6
*END

*D_NET *26 0.00332035

*CONN
*P *26 O *C 16.5 0 *L 0.005
*I *39:D I *C 19 23 *L 0.000904 *D DFFRXLTS
*I *38:Q O *C 19.4 27 *L 0 *D DFFRXLTS

*CAP
1 *26 0.00112779
2 *39:D 5.309e-05
3 *38:Q 5.309e-05
4 *26:3 0.00114233
5 *26:4 3.696e-05
6 *26:5 4.535e-05
7 *26:6 0.00016781
8 *26:7 0.00031063
9 *26:8 0.00015122
10 *26:9 0.00011604
11 *26:10 0.00011604

*RES
1 *26:4 *38:Q 6
2 *26 *26:3 7.56175
3 *26:5 *26:4 0.149
4 *26:10 *26:3 6
5 *26:6 *26:5 0.149
6 *26:10 *26:9 0.93125
7 *26:7 *39:D 6
8 *26:7 *26:6 0.894
9 *26:8 *26:9 6
10 *26:8 *26:7 0.894
*END

*D_NET *6 0.00528015

*CONN
*P *6 O *C 46.5 0 *L 0.005
*I *65:B I *C 53.4 15 *L 0.00162 *D XOR2XLTS
*I *61:Q O *C 54.2 12.6 *L 0 *D DFFRXLTS
*I *57:D I *C 46.2 23 *L 0.000904 *D DFFRXLTS

*CAP
1 *6 4.622e-05
2 *65:B 5.309e-05
3 *61:Q 5.309e-05
4 *57:D 5.309e-05
5 *6:4 0.00029619
6 *6:5 0.00035584
7 *6:6 0.00047637
8 *6:7 0.00047637
9 *6:8 0.00036386
10 *6:9 0.00045753
11 *6:10 0.00045753
12 *6:11 6.076e-05
13 *6:12 0.00049931
14 *6:13 0.00016604
15 *6:14 8.722e-05
16 *6:13 *8:3 8.088e-05
17 *6:12 *8:4 8.088e-05
18 *6:12 *8:3 0.00023366
19 *6:8 *8:4 0.00023366
20 *6:4 *8:8 4.39e-05
21 *6:5 *8:3 4.39e-05
22 *6:4 *8:3 1.995e-05
23 *6:5 *8:4 1.995e-05
24 *6:13 *2:3 3.592e-05
25 *6:12 *2:4 3.592e-05
26 *6:12 *2:3 9.578e-05
27 *6:8 *2:4 9.578e-05
28 *6:4 *2:3 0.00014379
29 *6:5 *2:4 0.00014379
30 *6:4 *2:3 2.696e-05
31 *6:5 *2:4 2.696e-05
32 *6:12 *2:5 7.98e-06
33 *6:8 *2 7.98e-06

*RES
1 *6:14 *57:D 6
2 *6:7 *6:14 6
3 *6:7 *6:6 2.682
4 *6:4 *6:6 6
5 *6 *6:11 0.26075
6 *6:5 *65:B 6
7 *6:5 *6:4 2.98
8 *6:10 *6:11 6
9 *6:5 *6:13 0.298
10 *6:10 *6:9 4.0425
11 *6:12 *61:Q 6
12 *6:12 *6:13 1.341
13 *6:8 *6:9 6
14 *6:8 *6:12 3.874
*END

*D_NET *5 0.00626719

*CONN
*P *5 O *C 48 0 *L 0.005
*I *58:D I *C 37.8 25.8 *L 0.000904 *D DFFRXLTS
*I *57:Q O *C 54.6 21.8 *L 0 *D DFFRXLTS

*CAP
1 *5 0.00058141
2 *58:D 5.309e-05
3 *57:Q 5.309e-05
4 *5:3 0.00028308
5 *5:4 0.00076732
6 *5:5 0.00048425
7 *5:6 0.00059269
8 *5:7 0.00032199
9 *5:8 0.00031873
10 *5:9 8.734e-05
11 *5:10 8.734e-05
12 *5:11 0.00018706
13 *5:12 0.00018706
14 *5:3 *7:6 0.00034957
15 *5:4 *7:7 0.00034957
16 *5:4 *7:6 0.00013109
17 *5:5 *7:7 0.00013109
18 *5:6 *7:4 6.069e-05
19 *5 *7:5 6.069e-05
20 *5:4 *1:57 6.784e-05
21 *5:5 *1:58 6.784e-05
22 *5:4 *1:58 1.197e-05
23 *5:5 *1:59 1.197e-05
24 *5:7 *1:60 6.291e-05
25 *5:8 *1:61 6.291e-05
26 *5:7 *1:61 1.797e-05
27 *5:8 *1:62 1.797e-05
28 *5:7 *1:63 5.079e-05
29 *5:8 *1:64 5.079e-05
30 *5:6 *1:64 3.95e-05
31 *5 *1:65 3.95e-05
32 *5:12 *1:66 7.48e-06
33 *5:11 *1:67 7.48e-06
34 *5:7 *4:6 0.00012416
35 *5:8 *4 0.00012416
36 *5:6 *4:6 0.0002074
37 *5 *4 0.0002074

*RES
1 *5:12 *58:D 6
2 *5:9 *57:Q 6
3 *5:11 *5:12 0.745
4 *5:9 *5:10 0.298
5 *5 *5:6 5.47575
6 *5:5 *5:11 6
7 *5:3 *5:10 6
8 *5:6 *5:8 0.0745
9 *5:5 *5:4 3.874
10 *5:4 *5:3 2.384
11 *5:8 *5:7 3.278
12 *5:7 *5:4 6
*END

*D_NET *7 0.00559421

*CONN
*P *7 O *C 45 0 *L 0.005
*I *61:D I *C 45.8 11.4 *L 0.000904 *D DFFRXLTS
*I *56:Q O *C 55.4 27 *L 0 *D DFFRXLTS

*CAP
1 *7 4.512e-05
2 *61:D 5.309e-05
3 *56:Q 5.309e-05
4 *7:3 0.0004711
5 *7:4 0.00105264
6 *7:5 0.00061213
7 *7:6 0.00016146
8 *7:7 0.00016146
9 *7:8 9.706e-05
10 *7:9 9.706e-05
11 *7:6 *8:9 0.00043697
12 *7:7 *8:10 0.00043697
13 *7:8 *8:8 2.185e-05
14 *7:9 *8:3 2.185e-05
15 *7:4 *8:7 4.08e-06
16 *7:5 *8 4.08e-06
17 *7:6 *5:3 0.00034957
18 *7:7 *5:4 0.00034957
19 *7:6 *5:4 0.00013109
20 *7:7 *5:5 0.00013109
21 *7:4 *5:6 6.069e-05
22 *7:5 *5 6.069e-05
23 *7:3 *31:64 4.494e-05
24 *7:4 *31:65 4.494e-05
25 *7:3 *31:65 3.595e-05
26 *7:4 *31:66 3.595e-05
27 *7:3 *31:67 0.00021848
28 *7:4 *31:68 0.00021848
29 *7:3 *31:68 8.739e-05
30 *7:4 *31:69 8.739e-05
31 *7:3 *31:43 3.99e-06
32 *7:4 *31:44 3.99e-06

*RES
1 *7:8 *56:Q 6
2 *7:9 *7:8 0.596
3 *7:6 *7:9 6
4 *7:7 *7:6 3.576
5 *7:3 *7:7 6
6 *7:4 *61:D 6
7 *7:4 *7:3 4.768
8 *7 *7:5 0.298
9 *7:5 *7:4 4.13475
*END

*D_NET *8 0.00619448

*CONN
*P *8 O *C 43.5 0 *L 0.005
*I *56:D I *C 47 25.8 *L 0.000904 *D DFFRXLTS
*I *55:Q O *C 54.6 19.8 *L 0 *D DFFRXLTS

*CAP
1 *8 3.79e-05
2 *56:D 5.309e-05
3 *55:Q 2.362e-05
4 *8:3 0.00114208
5 *8:4 0.00080698
6 *8:5 0.00066516
7 *8:6 0.00066516
8 *8:7 5.244e-05
9 *8:8 0.00033511
10 *8:9 0.00027545
11 *8:10 0.00027545
12 *8:11 6.196e-05
13 *8:12 5.875e-05
14 *8:13 5.875e-05
15 *8:9 *7:6 0.00043697
16 *8:10 *7:7 0.00043697
17 *8:8 *7:8 2.185e-05
18 *8:3 *7:9 2.185e-05
19 *8:7 *7:4 4.08e-06
20 *8 *7:5 4.08e-06
21 *8:3 *6:13 8.088e-05
22 *8:4 *6:12 8.088e-05
23 *8:3 *6:12 0.00023366
24 *8:4 *6:8 0.00023366
25 *8:8 *6:4 4.39e-05
26 *8:3 *6:5 4.39e-05
27 *8:3 *6:4 1.995e-05
28 *8:4 *6:5 1.995e-05

*RES
1 *8:13 *56:D 6
2 *8:12 *8:13 0.447
3 *8:10 *8:12 6
4 *8 *8:7 0.26075
5 *8:10 *8:9 2.98
6 *8:6 *8:7 6
7 *55:Q *8:11 0.21
8 *8:8 *8:9 6
9 *8:6 *8:5 4.28375
10 *8:3 *8:11 6
11 *8:3 *8:8 2.235
12 *8:4 *8:5 6
13 *8:4 *8:3 6.556
*END

*D_NET *28 0.00525399

*CONN
*P *28 O *C 13.5 0 *L 0.005
*I *37:D I *C 19 30.2 *L 0.000904 *D DFFRXLTS
*I *36:Q O *C 19.8 34.2 *L 0 *D DFFRXLTS

*CAP
1 *28 0.00093462
2 *37:D 5.309e-05
3 *36:Q 5.309e-05
4 *28:3 0.00018132
5 *28:4 0.00021264
6 *28:5 0.00036505
7 *28:6 0.00030466
8 *28:7 0.00094916
9 *28:8 0.00021739
10 *28:9 0.00021739
11 *28:8 *1:70 9.661e-05
12 *28:9 *1:71 9.661e-05
13 *28:8 *1:53 3.82e-06
14 *28:9 *1:54 3.82e-06
15 *28:7 *1:50 0.00014379
16 *28 *1:51 0.00014379
17 *28:7 *1:51 9.886e-05
18 *28 *1:72 9.886e-05
19 *28:7 *1:72 6.291e-05
20 *28 *1:73 6.291e-05
21 *28:7 *29:9 0.00031455
22 *28 *29:10 0.00031455
23 *28:7 *29:6 0.00016225
24 *28 *29 0.00016225

*RES
1 *28 *28:7 9.49875
2 *28:3 *36:Q 6
3 *28:9 *28:7 6
4 *28:4 *28:3 1.043
5 *28:9 *28:8 2.04875
6 *28:5 *37:D 6
7 *28:5 *28:4 0.298
8 *28:6 *28:8 6
9 *28:6 *28:5 1.639
*END

*D_NET *4 0.00436077

*CONN
*P *4 O *C 49.5 0 *L 0.005
*I *59:D I *C 47 30.2 *L 0.000904 *D DFFRXLTS
*I *58:Q O *C 46.2 27 *L 0 *D DFFRXLTS

*CAP
1 *4 0.00098603
2 *59:D 5.309e-05
3 *58:Q 2.142e-05
4 *4:3 0.00021864
5 *4:4 0.0002927
6 *4:5 7.407e-05
7 *4:6 0.00100057
8 *4:7 0.00016698
9 *4:8 0.00016698
10 *4:9 9.615e-05
11 *4:10 0.00010422
12 *4:6 *3:3 0.0002584
13 *4 *3 0.0002584
14 *4:6 *5:7 0.00012416
15 *4 *5:8 0.00012416
16 *4:6 *5:6 0.0002074
17 *4 *5 0.0002074

*RES
1 *58:Q *4:9 0.21
2 *4 *4:6 9.64775
3 *4:9 *4:10 0.42
4 *4:3 *59:D 6
5 *4:7 *4:6 6
6 *4:4 *4:10 6
7 *4:4 *4:3 1.043
8 *4:8 *4:7 0.93125
9 *4:5 *4:4 0.447
10 *4:5 *4:8 6
*END

*D_NET *14 0.00591673

*CONN
*P *14 O *C 34.5 0 *L 0.005
*I *63:D I *C 33.8 23 *L 0.000904 *D DFFRXLTS
*I *50:Q O *C 38.6 34.2 *L 0 *D DFFRXLTS

*CAP
1 *14 6.306e-05
2 *63:D 5.309e-05
3 *50:Q 5.309e-05
4 *14:3 0.00070789
5 *14:4 0.00074802
6 *14:5 0.00018227
7 *14:6 0.00034147
8 *14:7 0.00034147
9 *14:8 0.00027952
10 *14:9 0.00027952
11 *14:10 0.00014558
12 *14:11 0.00031945
13 *14:10 *15:3 8.987e-05
14 *14:11 *15 8.987e-05
15 *14:11 *15:3 8.987e-05
16 *14:5 *15 8.987e-05
17 *14:3 *15:3 0.00102141
18 *14:4 *15 0.00102141

*RES
1 *14:6 *50:Q 6
2 *14:7 *14:6 2.235
3 *14:8 *14:7 6
4 *14:9 *14:8 1.788
5 *14:4 *14 0.40975
6 *14:10 *14:9 6
7 *14:4 *14:3 6.96575
8 *14:11 *63:D 6
9 *14:11 *14:10 1.49
10 *14:3 *14:5 0.149
11 *14:5 *14:11 1.49
*END

*D_NET *15 0.00577261

*CONN
*P *15 O *C 33 0 *L 0.005
*I *50:D I *C 30.2 33 *L 0.000904 *D DFFRXLTS
*I *49:Q O *C 29.4 34.2 *L 0 *D DFFRXLTS

*CAP
1 *15 0.0012036
2 *50:D 5.309e-05
3 *49:Q 5.309e-05
4 *15:3 0.00121814
5 *15:4 0.00018132
6 *15:5 0.00017948
7 *15:6 0.00017948
8 *15:7 6.04e-05
9 *15:8 0.00024171
10 *15:3 *14:10 8.987e-05
11 *15 *14:11 8.987e-05
12 *15:3 *14:11 8.987e-05
13 *15 *14:5 8.987e-05
14 *15:3 *14:3 0.00102141
15 *15 *14:4 0.00102141

*RES
1 *15 *15:3 11.1378
2 *15:7 *49:Q 6
3 *15:6 *15:3 6
4 *15:7 *15:8 0.298
5 *15:8 *50:D 6
6 *15:5 *15:6 1.043
7 *15:4 *15:8 1.043
8 *15:4 *15:5 6
*END

*D_NET *2 0.00695931

*CONN
*P *2 O *C 52.5 0 *L 0.005
*I *66:A I *C 45 31 *L 0.00245 *D XNOR2X1TS
*I *60:Q O *C 56.6 36.2 *L 0 *D DFFRXLTS

*CAP
1 *2 5.529e-05
2 *66:A 5.309e-05
3 *60:Q 5.309e-05
4 *2:3 0.00109117
5 *2:4 0.00108227
6 *2:5 6.093e-05
7 *2:6 0.00069003
8 *2:7 0.00045984
9 *2:8 0.00034188
10 *2:9 0.00034188
11 *2:10 0.0002302
12 *2:11 8.722e-05
13 *2:3 *6:13 3.592e-05
14 *2:4 *6:12 3.592e-05
15 *2:3 *6:12 9.578e-05
16 *2:4 *6:8 9.578e-05
17 *2:3 *6:4 0.00014379
18 *2:4 *6:5 0.00014379
19 *2:3 *6:4 2.696e-05
20 *2:4 *6:5 2.696e-05
21 *2:5 *6:12 7.98e-06
22 *2 *6:8 7.98e-06
23 *2:3 *9:10 0.00021848
24 *2:4 *9:9 0.00021848
25 *2:3 *9:9 0.0006773
26 *2:4 *9:8 0.0006773

*RES
1 *2:8 *60:Q 6
2 *2:11 *66:A 6
3 *2:9 *2:8 1.937
4 *2 *2:5 0.55875
5 *2:7 *2:11 6
6 *2:10 *2:9 6
7 *2:5 *2:4 0.03725
8 *2:7 *2:6 2.98
9 *2:6 *2:10 1.49
10 *2:4 *2:3 10.877
11 *2:3 *2:6 6
*END

*D_NET *32 0.00092182

*CONN
*I *66:Y O *C 43.8 29 *L 0 *D XNOR2X1TS
*I *62:D I *C 47.4 33 *L 0.000904 *D DFFRXLTS

*CAP
1 *66:Y 5.309e-05
2 *62:D 5.309e-05
3 *32:2 0.0002226
4 *32:3 0.0002226
5 *32:4 9.192e-05
6 *32:5 9.192e-05
7 *32:6 9.33e-05
8 *32:7 9.33e-05

*RES
1 *32:7 *62:D 6
2 *32:6 *32:7 0.298
3 *32:2 *32:6 6
4 *32:3 *32:2 1.341
5 *32:5 *32:3 6
6 *32:4 *32:5 0.447
7 *66:Y *32:4 6
*END

*D_NET *29 0.00955865

*CONN
*P *29 O *C 12 0 *L 0.005
*I *64:A I *C 43 23.8 *L 0.00206 *D XOR2XLTS
*I *62:Q O *C 39 34.2 *L 0 *D DFFRXLTS
*I *36:D I *C 11.4 33 *L 0.000904 *D DFFRXLTS

*CAP
1 *29 0.00056668
2 *64:A 5.309e-05
3 *62:Q 5.309e-05
4 *36:D 5.309e-05
5 *29:4 0.0004233
6 *29:5 0.0004233
7 *29:6 0.00058122
8 *29:7 0.00013951
9 *29:8 0.00013951
10 *29:9 0.00087168
11 *29:10 0.00087168
12 *29:11 0.00151478
13 *29:12 0.00145156
14 *29:13 0.00022532
15 *29:14 3.452e-05
16 *29:15 3.452e-05
17 *29:16 0.0001621
18 *29:17 8.722e-05
19 *29:11 *31:84 8.987e-05
20 *29:12 *31:85 8.987e-05
21 *29:4 *31:76 8.465e-05
22 *29:5 *31:77 8.465e-05
23 *29:14 *31:76 1.87e-06
24 *29:15 *31:77 1.87e-06
25 *29:4 *31:63 3.19e-06
26 *29:5 *31:58 3.19e-06
27 *29:9 *31:61 2.822e-05
28 *29:10 *31:62 2.822e-05
29 *29:9 *31:72 8.987e-05
30 *29:10 *31:73 8.987e-05
31 *29:9 *31:73 4.494e-05
32 *29:10 *31:86 4.494e-05
33 *29:9 *31:86 0.00011683
34 *29:10 *31:87 0.00011683
35 *29:9 *28:7 0.00031455
36 *29:10 *28 0.00031455
37 *29:6 *28:7 0.00016225
38 *29 *28 0.00016225

*RES
1 *29:5 *64:A 6
2 *29 *29:6 4.28375
3 *29:5 *29:4 3.427
4 *29:14 *62:Q 6
5 *29:8 *29:6 6
6 *29:17 *36:D 6
7 *29:13 *29:4 6
8 *29:15 *29:14 0.149
9 *29:8 *29:7 0.8195
10 *29:16 *29:17 6
11 *29:11 *29:13 1.49
12 *29:11 *29:15 6
13 *29:10 *29:7 6
14 *29:16 *29:12 1.043
15 *29:12 *29:11 9.238
16 *29:10 *29:9 7.897
17 *29:9 *29:12 6
*END

*D_NET *31 0.0183659

*CONN
*P *31 I *C 0 15 *L 0
*I *63:RN I *C 34.2 21.8 *L 0.00408 *D DFFRXLTS
*I *62:RN I *C 47 34.2 *L 0.00408 *D DFFRXLTS
*I *61:RN I *C 46.2 12.6 *L 0.00408 *D DFFRXLTS
*I *60:RN I *C 48.6 36.2 *L 0.00408 *D DFFRXLTS
*I *59:RN I *C 47.4 29 *L 0.00408 *D DFFRXLTS
*I *58:RN I *C 38.2 27 *L 0.00408 *D DFFRXLTS
*I *57:RN I *C 46.6 21.8 *L 0.00408 *D DFFRXLTS
*I *56:RN I *C 47.4 27 *L 0.00408 *D DFFRXLTS
*I *55:RN I *C 46.6 19.8 *L 0.00408 *D DFFRXLTS
*I *54:RN I *C 44.2 14.6 *L 0.00408 *D DFFRXLTS
*I *53:RN I *C 41.8 12.6 *L 0.00408 *D DFFRXLTS
*I *52:RN I *C 35 14.6 *L 0.00408 *D DFFRXLTS
*I *51:RN I *C 41.8 19.8 *L 0.00408 *D DFFRXLTS
*I *50:RN I *C 30.6 34.2 *L 0.00408 *D DFFRXLTS
*I *49:RN I *C 21.4 34.2 *L 0.00408 *D DFFRXLTS
*I *48:RN I *C 30.2 29 *L 0.00408 *D DFFRXLTS
*I *47:RN I *C 21.4 27 *L 0.00408 *D DFFRXLTS
*I *46:RN I *C 29.8 19.8 *L 0.00408 *D DFFRXLTS
*I *45:RN I *C 23 21.8 *L 0.00408 *D DFFRXLTS
*I *44:RN I *C 30.2 14.6 *L 0.00408 *D DFFRXLTS
*I *43:RN I *C 23 12.6 *L 0.00408 *D DFFRXLTS
*I *42:RN I *C 11.8 12.6 *L 0.00408 *D DFFRXLTS
*I *41:RN I *C 19 14.6 *L 0.00408 *D DFFRXLTS
*I *40:RN I *C 11.8 19.8 *L 0.00408 *D DFFRXLTS
*I *39:RN I *C 18.6 21.8 *L 0.00408 *D DFFRXLTS
*I *38:RN I *C 11.4 27 *L 0.00408 *D DFFRXLTS
*I *37:RN I *C 18.6 29 *L 0.00408 *D DFFRXLTS
*I *36:RN I *C 11.8 34.2 *L 0.00408 *D DFFRXLTS

*CAP
1 *31 0.00062745
2 *63:RN 5.309e-05
3 *62:RN 0.00010618
4 *61:RN 5.309e-05
5 *60:RN 5.309e-05
6 *59:RN 5.309e-05
7 *58:RN 0.00010618
8 *57:RN 5.309e-05
9 *56:RN 5.309e-05
10 *55:RN 5.309e-05
11 *54:RN 5.309e-05
12 *53:RN 0.00010618
13 *52:RN 0.00010618
14 *51:RN 5.309e-05
15 *50:RN 5.309e-05
16 *49:RN 0.00010618
17 *48:RN 5.309e-05
18 *47:RN 0.00015927
19 *46:RN 5.309e-05
20 *45:RN 5.309e-05
21 *44:RN 0.00010618
22 *43:RN 5.309e-05
23 *42:RN 0.00010618
24 *41:RN 5.309e-05
25 *40:RN 0.00010618
26 *39:RN 5.309e-05
27 *38:RN 5.309e-05
28 *37:RN 0.00010618
29 *36:RN 5.309e-05
30 *31:29 0.0002704
31 *31:30 0.00030786
32 *31:31 4.494e-05
33 *31:32 4.494e-05
34 *31:33 0.00021398
35 *31:34 0.00038832
36 *31:35 0.00017435
37 *31:36 6.424e-05
38 *31:37 6.424e-05
39 *31:38 0.00064199
40 *31:39 0.00013529
41 *31:40 0.00040101
42 *31:41 0.00021162
43 *31:42 0.00021162
44 *31:43 4.728e-05
45 *31:44 4.728e-05
46 *31:45 0.00023712
47 *31:46 0.00019966
48 *31:47 0.00028251
49 *31:48 0.0001991
50 *31:49 0.00013083
51 *31:50 3.781e-05
52 *31:51 3.781e-05
53 *31:52 0.00029671
54 *31:53 0.00017784
55 *31:54 0.00019146
56 *31:55 0.00011313
57 *31:56 0.00011128
58 *31:57 0.00011128
59 *31:58 0.00039131
60 *31:59 0.00020171
61 *31:60 0.00020171
62 *31:61 8.284e-05
63 *31:62 7.445e-05
64 *31:63 0.00027093
65 *31:64 7.004e-05
66 *31:65 0.00010977
67 *31:66 4.776e-05
68 *31:67 0.00010802
69 *31:68 0.00014872
70 *31:69 4.873e-05
71 *31:70 0.00013612
72 *31:71 0.00013612
73 *31:72 0.00022063
74 *31:73 0.00030172
75 *31:74 0.00025971
76 *31:75 0.00019691
77 *31:76 0.00030756
78 *31:77 0.00030756
79 *31:78 0.00020759
80 *31:79 0.000342
81 *31:80 7.367e-05
82 *31:81 7.367e-05
83 *31:82 0.00024567
84 *31:83 0.00015871
85 *31:84 0.00017543
86 *31:85 0.00017543
87 *31:86 0.00028002
88 *31:87 0.000228
89 *31:88 0.00013442
90 *31:89 8.722e-05
91 *31:90 8.722e-05
92 *31:91 3.71e-05
93 *31:92 3.747e-05
94 *31:93 3.71e-05
95 *31:94 7.834e-05
96 *31:95 7.083e-05
97 *31:96 8.432e-05
98 *31:97 9.499e-05
99 *31:98 3.562e-05
100 *31:99 3.562e-05
101 *31:100 0.00012717
102 *31:101 0.00012717
103 *31:80 *1:84 3.595e-05
104 *31:81 *1:85 3.595e-05
105 *31:80 *1:77 8.99e-06
106 *31:81 *1:78 8.99e-06
107 *31:101 *1:86 6.291e-05
108 *31:100 *1:70 6.291e-05
109 *31:94 *1:48 1.797e-05
110 *31:54 *1:44 1.797e-05
111 *31:54 *1:48 5.392e-05
112 *31:55 *1:44 5.392e-05
113 *31:41 *1:45 0.00010784
114 *31:42 *1:46 0.00010784
115 *31:95 *1:79 2.696e-05
116 *31:74 *1:80 2.696e-05
117 *31:74 *1:80 5.392e-05
118 *31:75 *1:68 5.392e-05
119 *31:64 *1:60 4.494e-05
120 *31:65 *1:61 4.494e-05
121 *31:65 *1:63 2.185e-05
122 *31:66 *1:64 2.185e-05
123 *31:97 *1:87 4.494e-05
124 *31:82 *1:88 4.494e-05
125 *31:67 *1:63 7.19e-05
126 *31:68 *1:64 7.19e-05
127 *31:67 *1:64 1.797e-05
128 *31:68 *1:65 1.797e-05
129 *31:68 *1:64 3.595e-05
130 *31:69 *1:65 3.595e-05
131 *31:56 *1:41 3.595e-05
132 *31:57 *1:42 3.595e-05
133 *31:96 *1:41 2.33e-06
134 *31:48 *1:42 2.33e-06
135 *31:48 *1:41 1.167e-05
136 *31:49 *1:42 1.167e-05
137 *31:63 *1:82 2.696e-05
138 *31:58 *1:83 2.696e-05
139 *31:52 *1:49 1.308e-05
140 *31:53 *1:41 1.308e-05
141 *31:78 *1:31 2.056e-05
142 *31:79 *1:32 2.056e-05
143 *31:79 *1:32 1.122e-05
144 *31:88 *1:33 1.122e-05
145 *31:31 *1:32 8.99e-06
146 *31:32 *1:33 8.99e-06
147 *31:70 *1:89 3.595e-05
148 *31:71 *1:55 3.595e-05
149 *31:72 *1:89 1.87e-06
150 *31:73 *1:55 1.87e-06
151 *31:73 *1:89 9.35e-06
152 *31:86 *1:55 9.35e-06
153 *31:86 *1:55 2.056e-05
154 *31:87 *1:56 2.056e-05
155 *31:33 *1:51 9.886e-05
156 *31:34 *1:72 9.886e-05
157 *31:34 *1:72 5.392e-05
158 *31:35 *1:73 5.392e-05
159 *31:84 *29:11 8.987e-05
160 *31:85 *29:12 8.987e-05
161 *31:76 *29:4 8.465e-05
162 *31:77 *29:5 8.465e-05
163 *31:76 *29:14 1.87e-06
164 *31:77 *29:15 1.87e-06
165 *31:63 *29:4 3.19e-06
166 *31:58 *29:5 3.19e-06
167 *31:61 *29:9 2.822e-05
168 *31:62 *29:10 2.822e-05
169 *31:72 *29:9 8.987e-05
170 *31:73 *29:10 8.987e-05
171 *31:73 *29:9 4.494e-05
172 *31:86 *29:10 4.494e-05
173 *31:86 *29:9 0.00011683