$ Spice netlist generated by v2lvs
$ v2013.4_37.29    Fri Jan 31 15:23:28 PST 2014
.INCLUDE "/tools2/courses/ee6321/share/ibm13rflpvt/lvs_netlist/ibm13rflpvt.cdl" 

.SUBCKT incomingPortHandler_0 clk reset localRouterAddress[3] 
+ localRouterAddress[2] localRouterAddress[1] localRouterAddress[0] 
+ destinationAddressIn[11] destinationAddressIn[10] destinationAddressIn[9] 
+ destinationAddressIn[8] destinationAddressIn[7] destinationAddressIn[6] 
+ destinationAddressIn[5] destinationAddressIn[4] destinationAddressIn[3] 
+ destinationAddressIn[2] destinationAddressIn[1] destinationAddressIn[0] 
+ requesterAddressIn[3] requesterAddressIn[2] requesterAddressIn[1] 
+ requesterAddressIn[0] readIn writeIn outputPortSelect[3] outputPortSelect[2] 
+ outputPortSelect[1] outputPortSelect[0] memRead memWrite 
XmemWrite_reg memWrite clk n22 DFFHQX1TS 
XmemRead_reg memRead clk n27 DFFHQX1TS 
XoutputPortSelect_reg[3] outputPortSelect[3] clk n26 DFFHQX1TS 
XoutputPortSelect_reg[2] outputPortSelect[2] clk n25 DFFHQX1TS 
XoutputPortSelect_reg[1] outputPortSelect[1] clk n24 DFFHQX1TS 
XoutputPortSelect_reg[0] outputPortSelect[0] clk n23 DFFHQX1TS 
XU3 n22 n17 writeIn n16 memWrite AO22XLTS 
XU4 n5 localRouterAddress[3] destinationAddressIn[11] NAND2BXLTS 
XU5 n3 localRouterAddress[2] destinationAddressIn[10] NOR2BX1TS 
XU6 n2 localRouterAddress[3] destinationAddressIn[11] NOR2BX1TS 
XU7 n1 n5 n3 n2 AOI21X1TS 
XU8 n14 readIn writeIn reset AOI2BB1XLTS 
XU9 n11 n14 INVX2TS 
XU10 n23 n1 n11 NOR2XLTS 
XU11 n4 localRouterAddress[2] destinationAddressIn[10] NAND2BXLTS 
XU12 n24 n11 n2 n4 n5 n11 OAI32X1TS 
XU13 n6 destinationAddressIn[9] INVX2TS 
XU14 n7 destinationAddressIn[8] INVX2TS 
XU15 n10 localRouterAddress[1] n6 localRouterAddress[0] n7 AOI22X1TS 
XU16 n15 n5 n4 n3 n2 NOR4BBXLTS 
XU17 n9 localRouterAddress[1] n6 OR2X1TS 
XU18 n8 localRouterAddress[0] n7 OR2X1TS 
XU19 n13 n10 n15 n9 n8 NAND4XLTS 
XU20 n17 reset n13 NOR2XLTS 
XU21 n16 reset readIn writeIn NOR3XLTS 
XU22 n27 readIn n17 memRead n16 AO22XLTS 
XU23 n12 n10 n9 NAND2BXLTS 
XU24 n26 n15 n11 n12 NOR3BXLTS 
XU25 n25 n15 n14 n13 n12 AND4X1TS 
.ENDS

.SUBCKT cacheAccessArbiter clk reset cacheAddressIn_NORTH[7] 
+ cacheAddressIn_NORTH[6] cacheAddressIn_NORTH[5] cacheAddressIn_NORTH[4] 
+ cacheAddressIn_NORTH[3] cacheAddressIn_NORTH[2] cacheAddressIn_NORTH[1] 
+ cacheAddressIn_NORTH[0] requesterAddressIn_NORTH[3] 
+ requesterAddressIn_NORTH[2] requesterAddressIn_NORTH[1] 
+ requesterAddressIn_NORTH[0] memRead_NORTH memWrite_NORTH dataIn_NORTH[5] 
+ dataIn_NORTH[4] dataIn_NORTH[3] dataIn_NORTH[2] dataIn_NORTH[1] 
+ dataIn_NORTH[0] readReady_NORTH requesterAddressOut_NORTH[3] 
+ requesterAddressOut_NORTH[2] requesterAddressOut_NORTH[1] 
+ requesterAddressOut_NORTH[0] cacheDataOut_NORTH[5] cacheDataOut_NORTH[4] 
+ cacheDataOut_NORTH[3] cacheDataOut_NORTH[2] cacheDataOut_NORTH[1] 
+ cacheDataOut_NORTH[0] cacheAddressIn_SOUTH[7] cacheAddressIn_SOUTH[6] 
+ cacheAddressIn_SOUTH[5] cacheAddressIn_SOUTH[4] cacheAddressIn_SOUTH[3] 
+ cacheAddressIn_SOUTH[2] cacheAddressIn_SOUTH[1] cacheAddressIn_SOUTH[0] 
+ requesterAddressIn_SOUTH[3] requesterAddressIn_SOUTH[2] 
+ requesterAddressIn_SOUTH[1] requesterAddressIn_SOUTH[0] memRead_SOUTH 
+ memWrite_SOUTH dataIn_SOUTH[5] dataIn_SOUTH[4] dataIn_SOUTH[3] 
+ dataIn_SOUTH[2] dataIn_SOUTH[1] dataIn_SOUTH[0] readReady_SOUTH 
+ requesterAddressOut_SOUTH[3] requesterAddressOut_SOUTH[2] 
+ requesterAddressOut_SOUTH[1] requesterAddressOut_SOUTH[0] 
+ cacheDataOut_SOUTH[5] cacheDataOut_SOUTH[4] cacheDataOut_SOUTH[3] 
+ cacheDataOut_SOUTH[2] cacheDataOut_SOUTH[1] cacheDataOut_SOUTH[0] 
+ cacheAddressIn_EAST[7] cacheAddressIn_EAST[6] cacheAddressIn_EAST[5] 
+ cacheAddressIn_EAST[4] cacheAddressIn_EAST[3] cacheAddressIn_EAST[2] 
+ cacheAddressIn_EAST[1] cacheAddressIn_EAST[0] requesterAddressIn_EAST[3] 
+ requesterAddressIn_EAST[2] requesterAddressIn_EAST[1] 
+ requesterAddressIn_EAST[0] memRead_EAST memWrite_EAST dataIn_EAST[5] 
+ dataIn_EAST[4] dataIn_EAST[3] dataIn_EAST[2] dataIn_EAST[1] dataIn_EAST[0] 
+ readReady_EAST requesterAddressOut_EAST[3] requesterAddressOut_EAST[2] 
+ requesterAddressOut_EAST[1] requesterAddressOut_EAST[0] cacheDataOut_EAST[5] 
+ cacheDataOut_EAST[4] cacheDataOut_EAST[3] cacheDataOut_EAST[2] 
+ cacheDataOut_EAST[1] cacheDataOut_EAST[0] cacheAddressIn_WEST[7] 
+ cacheAddressIn_WEST[6] cacheAddressIn_WEST[5] cacheAddressIn_WEST[4] 
+ cacheAddressIn_WEST[3] cacheAddressIn_WEST[2] cacheAddressIn_WEST[1] 
+ cacheAddressIn_WEST[0] requesterAddressIn_WEST[3] requesterAddressIn_WEST[2] 
+ requesterAddressIn_WEST[1] requesterAddressIn_WEST[0] memRead_WEST 
+ memWrite_WEST dataIn_WEST[5] dataIn_WEST[4] dataIn_WEST[3] dataIn_WEST[2] 
+ dataIn_WEST[1] dataIn_WEST[0] readReady_WEST requesterAddressOut_WEST[3] 
+ requesterAddressOut_WEST[2] requesterAddressOut_WEST[1] 
+ requesterAddressOut_WEST[0] cacheDataOut_WEST[5] cacheDataOut_WEST[4] 
+ cacheDataOut_WEST[3] cacheDataOut_WEST[2] cacheDataOut_WEST[1] 
+ cacheDataOut_WEST[0] cacheDataIn_A[5] cacheDataIn_A[4] cacheDataIn_A[3] 
+ cacheDataIn_A[2] cacheDataIn_A[1] cacheDataIn_A[0] cacheAddressIn_A[7] 
+ cacheAddressIn_A[6] cacheAddressIn_A[5] cacheAddressIn_A[4] 
+ cacheAddressIn_A[3] cacheAddressIn_A[2] cacheAddressIn_A[1] 
+ cacheAddressIn_A[0] cacheDataOut_A[5] cacheDataOut_A[4] cacheDataOut_A[3] 
+ cacheDataOut_A[2] cacheDataOut_A[1] cacheDataOut_A[0] memWrite_A 
+ cacheDataIn_B[5] cacheDataIn_B[4] cacheDataIn_B[3] cacheDataIn_B[2] 
+ cacheDataIn_B[1] cacheDataIn_B[0] cacheAddressIn_B[7] cacheAddressIn_B[6] 
+ cacheAddressIn_B[5] cacheAddressIn_B[4] cacheAddressIn_B[3] 
+ cacheAddressIn_B[2] cacheAddressIn_B[1] cacheAddressIn_B[0] cacheDataOut_B[5] 
+ cacheDataOut_B[4] cacheDataOut_B[3] cacheDataOut_B[2] cacheDataOut_B[1] 
+ cacheDataOut_B[0] memWrite_B 
XFE_PHC266_N5383 FE_PHN266_N5383 FE_PHN232_N5383 CLKBUFX2TS 
XFE_PHC265_N5391 FE_PHN265_N5391 N5391 CLKBUFX2TS 
XFE_PHC243_N5389 FE_PHN243_N5389 N5389 DLY1X1TS 
XFE_PHC242_N5392 FE_PHN242_N5392 N5392 DLY1X1TS 
XFE_PHC241_N5391 FE_PHN241_N5391 FE_PHN265_N5391 DLY1X1TS 
XFE_PHC240_N5390 FE_PHN240_N5390 N5390 DLY1X1TS 
XFE_PHC239_N5393 FE_PHN239_N5393 N5393 DLY1X1TS 
XFE_PHC238_N5394 FE_PHN238_N5394 N5394 DLY1X1TS 
XFE_PHC237_N5385 FE_PHN237_N5385 N5385 DLY2X1TS 
XFE_PHC236_N5384 N5384 FE_PHN236_N5384 DLY2X1TS 
XFE_PHC235_N5382 FE_PHN235_N5382 N5382 DLY2X1TS 
XFE_PHC234_N5386 FE_PHN234_N5386 N5386 DLY2X1TS 
XFE_PHC233_N5381 N5381 FE_PHN233_N5381 DLY2X1TS 
XFE_PHC232_N5383 FE_PHN232_N5383 N5383 DLY2X1TS 
XFE_PHC230_N5377 FE_PHN230_N5377 N5377 DLY3X1TS 
XFE_PHC229_N5378 N5378 FE_PHN229_N5378 DLY3X1TS 
XFE_PHC228_N5374 N5374 FE_PHN228_N5374 DLY3X4TS 
XFE_PHC227_N5376 FE_PHN227_N5376 N5376 DLY3X4TS 
XFE_PHC226_N5375 FE_PHN226_N5375 N5375 DLY3X4TS 
XFE_PHC225_N5373 FE_PHN225_N5373 N5373 DLY4X1TS 
XFE_PHC224_N5399 FE_PHN224_N5399 N5399 DLY4X4TS 
XFE_PHC223_N5401 FE_PHN223_N5401 N5401 DLY4X4TS 
XFE_PHC222_N5398 N5398 FE_PHN222_N5398 DLY4X1TS 
XFE_PHC221_N5402 N5402 FE_PHN221_N5402 DLY4X1TS 
XFE_PHC220_N5397 FE_PHN220_N5397 N5397 DLY4X1TS 
XFE_PHC219_N5400 N5400 FE_PHN219_N5400 DLY4X1TS 
XFE_DBTC188_n3 FE_DBTN188_n3 n3 INVX2TS 
XFE_DBTC187_n13 FE_DBTN187_n13 n13 INVX2TS 
XFE_DBTC186_n15 FE_DBTN186_n15 n15 INVX2TS 
XFE_DBTC185_n16 FE_DBTN185_n16 n16 INVX2TS 
XFE_DBTC184_n18 FE_DBTN184_n18 n18 INVX2TS 
XFE_DBTC183_n26 FE_DBTN183_n26 n26 INVX2TS 
XFE_DBTC182_n35 FE_DBTN182_n35 n35 INVX2TS 
XFE_DBTC181_n57 FE_DBTN181_n57 n57 INVX2TS 
XFE_DBTC180_n67 FE_DBTN180_n67 n67 INVX2TS 
XFE_DBTC179_n93 FE_DBTN179_n93 n93 INVX2TS 
XFE_DBTC178_n98 FE_DBTN178_n98 n98 INVX2TS 
XFE_DBTC177_n146 FE_DBTN177_n146 n146 INVX2TS 
XFE_DBTC176_n498 FE_DBTN176_n498 n498 INVX2TS 
XFE_DBTC175_n681 FE_DBTN175_n681 n681 INVX2TS 
XFE_DBTC174_n205 FE_DBTN174_n205 n205 INVX2TS 
XFE_DBTC173_n254 FE_DBTN173_n254 n254 INVX2TS 
XFE_DBTC172_n367 FE_DBTN172_n367 n367 INVX2TS 
XFE_DBTC171_n550 FE_DBTN171_n550 n550 INVX2TS 
XFE_DBTC170_n612 FE_DBTN170_n612 n612 INVX2TS 
XFE_DBTC169_n651 FE_DBTN169_n651 n651 INVX2TS 
XFE_DBTC168_n683 FE_DBTN168_n683 n683 INVX2TS 
XFE_DBTC167_n702 FE_DBTN167_n702 n702 INVX2TS 
XreadReady_Concatenated_reg[3] readReady_WEST 1000 clk N5340 n793 EDFFX1TS 
XreadReady_Concatenated_reg[2] readReady_EAST 1001 clk N5332 n793 EDFFX1TS 
XreadReady_Concatenated_reg[1] readReady_SOUTH 1002 clk N5324 n793 EDFFX1TS 
XreadReady_Concatenated_reg[0] readReady_NORTH 1003 clk N5316 n793 EDFFX1TS 
XrequesterPortBuffer_reg[4][1] 1004 n831 clk n1274 VDD VDD DFFNSRX1TS 
XrequesterAddressBuffer_reg[1][3] requesterAddressBuffer[1][3] 1005 clk n1347 
+ VDD VDD DFFNSRX1TS 
XrequesterAddressBuffer_reg[1][2] requesterAddressBuffer[1][2] 1006 clk n1348 
+ VDD VDD DFFNSRX1TS 
XrequesterAddressBuffer_reg[1][1] requesterAddressBuffer[1][1] 1007 clk n1349 
+ VDD VDD DFFNSRX1TS 
XrequesterAddressBuffer_reg[1][0] requesterAddressBuffer[1][0] 1008 clk n1350 
+ VDD VDD DFFNSRX1TS 
XdataToWriteBuffer_reg[0][5] dataToWriteBuffer[0][5] 1009 clk n1262 VDD VDD 
+ DFFNSRX1TS 
XdataToWriteBuffer_reg[0][4] dataToWriteBuffer[0][4] 1010 clk n1263 VDD VDD 
+ DFFNSRX1TS 
XdataToWriteBuffer_reg[0][3] dataToWriteBuffer[0][3] 1011 clk n1264 VDD VDD 
+ DFFNSRX1TS 
XdataToWriteBuffer_reg[0][2] dataToWriteBuffer[0][2] 1012 clk n1265 VDD VDD 
+ DFFNSRX1TS 
XdataToWriteBuffer_reg[0][1] dataToWriteBuffer[0][1] 1013 clk n1266 VDD VDD 
+ DFFNSRX1TS 
XdataToWriteBuffer_reg[0][0] dataToWriteBuffer[0][0] 1014 clk n1267 VDD VDD 
+ DFFNSRX1TS 
XaddressToWriteBuffer_reg[0][7] addressToWriteBuffer[0][7] 1015 clk n1339 VDD 
+ VDD DFFNSRX1TS 
XaddressToWriteBuffer_reg[0][6] addressToWriteBuffer[0][6] 1016 clk n1340 VDD 
+ VDD DFFNSRX1TS 
XaddressToWriteBuffer_reg[0][5] addressToWriteBuffer[0][5] 1017 clk n1341 VDD 
+ VDD DFFNSRX1TS 
XaddressToWriteBuffer_reg[0][4] addressToWriteBuffer[0][4] 1018 clk n1342 VDD 
+ VDD DFFNSRX1TS 
XaddressToWriteBuffer_reg[0][3] addressToWriteBuffer[0][3] 1019 clk n1343 VDD 
+ VDD DFFNSRX1TS 
XaddressToWriteBuffer_reg[0][2] addressToWriteBuffer[0][2] 1020 clk n1344 VDD 
+ VDD DFFNSRX1TS 
XaddressToWriteBuffer_reg[0][1] addressToWriteBuffer[0][1] 1021 clk n1345 VDD 
+ VDD DFFNSRX1TS 
XaddressToWriteBuffer_reg[0][0] addressToWriteBuffer[0][0] 1022 clk n1346 VDD 
+ VDD DFFNSRX1TS 
XrequesterPortBuffer_reg[0][1] requesterPortBuffer[0][1] 1023 clk n1282 VDD VDD 
+ DFFNSRX1TS 
XrequesterPortBuffer_reg[0][0] requesterPortBuffer[0][0] 1024 clk n1363 VDD VDD 
+ DFFNSRX1TS 
XrequesterAddressBuffer_reg[0][3] requesterAddressBuffer[0][3] 1025 clk n1351 
+ VDD VDD DFFNSRX1TS 
XrequesterAddressBuffer_reg[0][2] requesterAddressBuffer[0][2] 1026 clk n1352 
+ VDD VDD DFFNSRX1TS 
XrequesterAddressBuffer_reg[0][1] requesterAddressBuffer[0][1] 1027 clk n1353 
+ VDD VDD DFFNSRX1TS 
XrequesterAddressBuffer_reg[0][0] requesterAddressBuffer[0][0] 1028 clk n1354 
+ VDD VDD DFFNSRX1TS 
XrequesterPortBuffer_reg[1][1] requesterPortBuffer[1][1] 1029 clk n1280 VDD VDD 
+ DFFNSRX1TS 
XrequesterPortBuffer_reg[1][0] requesterPortBuffer[1][0] 1030 clk n1281 VDD VDD 
+ DFFNSRX1TS 
XisWrite_reg[3] isWrite[3] 1031 clk n1216 VDD VDD DFFNSRX1TS 
XrequesterPortBuffer_reg[4][0] requesterPortBuffer[4][0] 1032 clk n825 VDD VDD 
+ DFFNSRX1TS 
XisWrite_reg[4] isWrite[4] 1033 clk n1215 VDD VDD DFFNSRX1TS 
XdataToWriteBuffer_reg[4][5] dataToWriteBuffer[4][5] 1034 clk n1238 VDD VDD 
+ DFFNSRX1TS 
XdataToWriteBuffer_reg[4][4] dataToWriteBuffer[4][4] 1035 clk n1239 VDD VDD 
+ DFFNSRX1TS 
XdataToWriteBuffer_reg[4][3] dataToWriteBuffer[4][3] 1036 clk n1240 VDD VDD 
+ DFFNSRX1TS 
XdataToWriteBuffer_reg[4][2] dataToWriteBuffer[4][2] 1037 clk n1241 VDD VDD 
+ DFFNSRX1TS 
XdataToWriteBuffer_reg[4][1] dataToWriteBuffer[4][1] 1038 clk n1242 VDD VDD 
+ DFFNSRX1TS 
XdataToWriteBuffer_reg[4][0] dataToWriteBuffer[4][0] 1039 clk n1243 VDD VDD 
+ DFFNSRX1TS 
XaddressToWriteBuffer_reg[4][7] addressToWriteBuffer[4][7] 1040 clk n1307 VDD 
+ VDD DFFNSRX1TS 
XaddressToWriteBuffer_reg[4][6] addressToWriteBuffer[4][6] 1041 clk n1308 VDD 
+ VDD DFFNSRX1TS 
XaddressToWriteBuffer_reg[4][5] addressToWriteBuffer[4][5] 1042 clk n1309 VDD 
+ VDD DFFNSRX1TS 
XaddressToWriteBuffer_reg[4][4] addressToWriteBuffer[4][4] 1043 clk n1310 VDD 
+ VDD DFFNSRX1TS 
XaddressToWriteBuffer_reg[4][3] addressToWriteBuffer[4][3] 1044 clk n1311 VDD 
+ VDD DFFNSRX1TS 
XaddressToWriteBuffer_reg[4][2] addressToWriteBuffer[4][2] 1045 clk n1312 VDD 
+ VDD DFFNSRX1TS 
XaddressToWriteBuffer_reg[4][1] addressToWriteBuffer[4][1] 1046 clk n1313 VDD 
+ VDD DFFNSRX1TS 
XaddressToWriteBuffer_reg[4][0] addressToWriteBuffer[4][0] 1047 clk n1314 VDD 
+ VDD DFFNSRX1TS 
XisWrite_reg[2] isWrite[2] 1048 clk n1217 VDD VDD DFFNSRX1TS 
XdataToWriteBuffer_reg[1][5] dataToWriteBuffer[1][5] 1049 clk n1256 VDD VDD 
+ DFFNSRX1TS 
XdataToWriteBuffer_reg[1][4] dataToWriteBuffer[1][4] 1050 clk n1257 VDD VDD 
+ DFFNSRX1TS 
XdataToWriteBuffer_reg[1][3] dataToWriteBuffer[1][3] 1051 clk n1258 VDD VDD 
+ DFFNSRX1TS 
XdataToWriteBuffer_reg[1][2] dataToWriteBuffer[1][2] 1052 clk n1259 VDD VDD 
+ DFFNSRX1TS 
XdataToWriteBuffer_reg[1][1] dataToWriteBuffer[1][1] 1053 clk n1260 VDD VDD 
+ DFFNSRX1TS 
XdataToWriteBuffer_reg[1][0] dataToWriteBuffer[1][0] 1054 clk n1261 VDD VDD 
+ DFFNSRX1TS 
XaddressToWriteBuffer_reg[1][7] addressToWriteBuffer[1][7] 1055 clk n1331 VDD 
+ VDD DFFNSRX1TS 
XaddressToWriteBuffer_reg[1][6] addressToWriteBuffer[1][6] 1056 clk n1332 VDD 
+ VDD DFFNSRX1TS 
XaddressToWriteBuffer_reg[1][5] addressToWriteBuffer[1][5] 1057 clk n1333 VDD 
+ VDD DFFNSRX1TS 
XaddressToWriteBuffer_reg[1][4] addressToWriteBuffer[1][4] 1058 clk n1334 VDD 
+ VDD DFFNSRX1TS 
XaddressToWriteBuffer_reg[1][3] addressToWriteBuffer[1][3] 1059 clk n1335 VDD 
+ VDD DFFNSRX1TS 
XaddressToWriteBuffer_reg[1][2] addressToWriteBuffer[1][2] 1060 clk n1336 VDD 
+ VDD DFFNSRX1TS 
XaddressToWriteBuffer_reg[1][1] addressToWriteBuffer[1][1] 1061 clk n1337 VDD 
+ VDD DFFNSRX1TS 
XaddressToWriteBuffer_reg[1][0] addressToWriteBuffer[1][0] 1062 clk n1338 VDD 
+ VDD DFFNSRX1TS 
XrequesterPortBuffer_reg[3][0] requesterPortBuffer[3][0] 1063 clk n1277 VDD VDD 
+ DFFNSRX1TS 
XdataToWriteBuffer_reg[3][5] dataToWriteBuffer[3][5] 1064 clk n1244 VDD VDD 
+ DFFNSRX1TS 
XdataToWriteBuffer_reg[3][4] dataToWriteBuffer[3][4] 1065 clk n1245 VDD VDD 
+ DFFNSRX1TS 
XdataToWriteBuffer_reg[3][3] dataToWriteBuffer[3][3] 1066 clk n1246 VDD VDD 
+ DFFNSRX1TS 
XdataToWriteBuffer_reg[3][2] dataToWriteBuffer[3][2] 1067 clk n1247 VDD VDD 
+ DFFNSRX1TS 
XdataToWriteBuffer_reg[3][1] dataToWriteBuffer[3][1] 1068 clk n1248 VDD VDD 
+ DFFNSRX1TS 
XdataToWriteBuffer_reg[3][0] dataToWriteBuffer[3][0] 1069 clk n1249 VDD VDD 
+ DFFNSRX1TS 
XaddressToWriteBuffer_reg[3][7] addressToWriteBuffer[3][7] 1070 clk n1315 VDD 
+ VDD DFFNSRX1TS 
XaddressToWriteBuffer_reg[3][6] addressToWriteBuffer[3][6] 1071 clk n1316 VDD 
+ VDD DFFNSRX1TS 
XaddressToWriteBuffer_reg[3][5] addressToWriteBuffer[3][5] 1072 clk n1317 VDD 
+ VDD DFFNSRX1TS 
XaddressToWriteBuffer_reg[3][4] addressToWriteBuffer[3][4] 1073 clk n1318 VDD 
+ VDD DFFNSRX1TS 
XaddressToWriteBuffer_reg[3][3] addressToWriteBuffer[3][3] 1074 clk n1319 VDD 
+ VDD DFFNSRX1TS 
XaddressToWriteBuffer_reg[3][2] addressToWriteBuffer[3][2] 1075 clk n1320 VDD 
+ VDD DFFNSRX1TS 
XaddressToWriteBuffer_reg[3][1] addressToWriteBuffer[3][1] 1076 clk n1321 VDD 
+ VDD DFFNSRX1TS 
XaddressToWriteBuffer_reg[3][0] addressToWriteBuffer[3][0] 1077 clk n1322 VDD 
+ VDD DFFNSRX1TS 
XdataToWriteBuffer_reg[5][5] dataToWriteBuffer[5][5] 1078 clk n1232 VDD VDD 
+ DFFNSRX1TS 
XdataToWriteBuffer_reg[5][4] dataToWriteBuffer[5][4] 1079 clk n1233 VDD VDD 
+ DFFNSRX1TS 
XdataToWriteBuffer_reg[5][3] dataToWriteBuffer[5][3] 1080 clk n1234 VDD VDD 
+ DFFNSRX1TS 
XdataToWriteBuffer_reg[5][2] dataToWriteBuffer[5][2] 1081 clk n1235 VDD VDD 
+ DFFNSRX1TS 
XdataToWriteBuffer_reg[5][1] dataToWriteBuffer[5][1] 1082 clk n1236 VDD VDD 
+ DFFNSRX1TS 
XdataToWriteBuffer_reg[5][0] dataToWriteBuffer[5][0] 1083 clk n1237 VDD VDD 
+ DFFNSRX1TS 
XaddressToWriteBuffer_reg[5][7] addressToWriteBuffer[5][7] 1084 clk n1299 VDD 
+ VDD DFFNSRX1TS 
XaddressToWriteBuffer_reg[5][6] addressToWriteBuffer[5][6] 1085 clk n1300 VDD 
+ VDD DFFNSRX1TS 
XaddressToWriteBuffer_reg[5][5] addressToWriteBuffer[5][5] 1086 clk n1301 VDD 
+ VDD DFFNSRX1TS 
XaddressToWriteBuffer_reg[5][4] addressToWriteBuffer[5][4] 1087 clk n1302 VDD 
+ VDD DFFNSRX1TS 
XaddressToWriteBuffer_reg[5][3] addressToWriteBuffer[5][3] 1088 clk n1303 VDD 
+ VDD DFFNSRX1TS 
XaddressToWriteBuffer_reg[5][2] addressToWriteBuffer[5][2] 1089 clk n1304 VDD 
+ VDD DFFNSRX1TS 
XaddressToWriteBuffer_reg[5][1] addressToWriteBuffer[5][1] 1090 clk n1305 VDD 
+ VDD DFFNSRX1TS 
XaddressToWriteBuffer_reg[5][0] addressToWriteBuffer[5][0] 1091 clk n1306 VDD 
+ VDD DFFNSRX1TS 
XrequesterPortBuffer_reg[2][0] requesterPortBuffer[2][0] 1092 clk n1279 VDD VDD 
+ DFFNSRX1TS 
XdataToWriteBuffer_reg[2][5] dataToWriteBuffer[2][5] 1093 clk n1250 VDD VDD 
+ DFFNSRX1TS 
XdataToWriteBuffer_reg[2][4] dataToWriteBuffer[2][4] 1094 clk n1251 VDD VDD 
+ DFFNSRX1TS 
XdataToWriteBuffer_reg[2][3] dataToWriteBuffer[2][3] 1095 clk n1252 VDD VDD 
+ DFFNSRX1TS 
XdataToWriteBuffer_reg[2][2] dataToWriteBuffer[2][2] 1096 clk n1253 VDD VDD 
+ DFFNSRX1TS 
XdataToWriteBuffer_reg[2][1] dataToWriteBuffer[2][1] 1097 clk n1254 VDD VDD 
+ DFFNSRX1TS 
XdataToWriteBuffer_reg[2][0] dataToWriteBuffer[2][0] 1098 clk n1255 VDD VDD 
+ DFFNSRX1TS 
XaddressToWriteBuffer_reg[2][7] addressToWriteBuffer[2][7] 1099 clk n1323 VDD 
+ VDD DFFNSRX1TS 
XaddressToWriteBuffer_reg[2][6] addressToWriteBuffer[2][6] 1100 clk n1324 VDD 
+ VDD DFFNSRX1TS 
XaddressToWriteBuffer_reg[2][5] addressToWriteBuffer[2][5] 1101 clk n1325 VDD 
+ VDD DFFNSRX1TS 
XaddressToWriteBuffer_reg[2][4] addressToWriteBuffer[2][4] 1102 clk n1326 VDD 
+ VDD DFFNSRX1TS 
XaddressToWriteBuffer_reg[2][3] addressToWriteBuffer[2][3] 1103 clk n1327 VDD 
+ VDD DFFNSRX1TS 
XaddressToWriteBuffer_reg[2][2] addressToWriteBuffer[2][2] 1104 clk n1328 VDD 
+ VDD DFFNSRX1TS 
XaddressToWriteBuffer_reg[2][1] addressToWriteBuffer[2][1] 1105 clk n1329 VDD 
+ VDD DFFNSRX1TS 
XaddressToWriteBuffer_reg[2][0] addressToWriteBuffer[2][0] 1106 clk n1330 VDD 
+ VDD DFFNSRX1TS 
XrequesterPortBuffer_reg[2][1] requesterPortBuffer[2][1] 1107 clk n1278 VDD VDD 
+ DFFNSRX1TS 
XdataToWriteBuffer_reg[6][5] dataToWriteBuffer[6][5] 1108 clk n1226 VDD VDD 
+ DFFNSRX1TS 
XdataToWriteBuffer_reg[6][4] dataToWriteBuffer[6][4] 1109 clk n1227 VDD VDD 
+ DFFNSRX1TS 
XdataToWriteBuffer_reg[6][3] dataToWriteBuffer[6][3] 1110 clk n1228 VDD VDD 
+ DFFNSRX1TS 
XdataToWriteBuffer_reg[6][2] dataToWriteBuffer[6][2] 1111 clk n1229 VDD VDD 
+ DFFNSRX1TS 
XdataToWriteBuffer_reg[6][1] dataToWriteBuffer[6][1] 1112 clk n1230 VDD VDD 
+ DFFNSRX1TS 
XdataToWriteBuffer_reg[6][0] dataToWriteBuffer[6][0] 1113 clk n1231 VDD VDD 
+ DFFNSRX1TS 
XaddressToWriteBuffer_reg[6][7] addressToWriteBuffer[6][7] 1114 clk n1291 VDD 
+ VDD DFFNSRX1TS 
XaddressToWriteBuffer_reg[6][6] addressToWriteBuffer[6][6] 1115 clk n1292 VDD 
+ VDD DFFNSRX1TS 
XaddressToWriteBuffer_reg[6][5] addressToWriteBuffer[6][5] 1116 clk n1293 VDD 
+ VDD DFFNSRX1TS 
XaddressToWriteBuffer_reg[6][4] addressToWriteBuffer[6][4] 1117 clk n1294 VDD 
+ VDD DFFNSRX1TS 
XaddressToWriteBuffer_reg[6][3] addressToWriteBuffer[6][3] 1118 clk n1295 VDD 
+ VDD DFFNSRX1TS 
XaddressToWriteBuffer_reg[6][2] addressToWriteBuffer[6][2] 1119 clk n1296 VDD 
+ VDD DFFNSRX1TS 
XaddressToWriteBuffer_reg[6][1] addressToWriteBuffer[6][1] 1120 clk n1297 VDD 
+ VDD DFFNSRX1TS 
XaddressToWriteBuffer_reg[6][0] addressToWriteBuffer[6][0] 1121 clk n1298 VDD 
+ VDD DFFNSRX1TS 
XrequesterPortBuffer_reg[3][1] requesterPortBuffer[3][1] 1122 clk n1276 VDD VDD 
+ DFFNSRX1TS 
XrequesterPortBuffer_reg[5][0] requesterPortBuffer[5][0] 1123 clk n1273 VDD VDD 
+ DFFNSRX1TS 
XrequesterPortBuffer_reg[5][1] requesterPortBuffer[5][1] 1124 clk n1272 VDD VDD 
+ DFFNSRX1TS 
XisWrite_reg[0] isWrite[0] 1125 clk n1219 VDD VDD DFFNSRX1TS 
XnextEmptyBuffer_reg[1] N742 n12 clk n1210 VDD VDD DFFNSRX1TS 
XnextEmptyBuffer_reg[0] N741 1126 clk n1211 VDD VDD DFFNSRX1TS 
XprevMemRead_B_reg prevMemRead_B 1127 clk n1204 VDD VDD DFFNSRX1TS 
XprevMemRead_A_reg prevMemRead_A 1128 clk n1203 VDD VDD DFFNSRX1TS 
XprevRequesterAddress_A_reg[3] prevRequesterAddress_A[3] n8 clk n1205 VDD VDD 
+ DFFNSRX1TS 
XprevRequesterAddress_A_reg[2] prevRequesterAddress_A[2] n9 clk n1206 VDD VDD 
+ DFFNSRX1TS 
XprevRequesterAddress_A_reg[1] prevRequesterAddress_A[1] n10 clk n1207 VDD VDD 
+ DFFNSRX1TS 
XprevRequesterAddress_A_reg[0] prevRequesterAddress_A[0] n11 clk n1208 VDD VDD 
+ DFFNSRX1TS 
XdataOut_Concatenated_reg[3][5] cacheDataOut_WEST[5] 1129 N5402 clk TLATXLTS 
XdataOut_Concatenated_reg[3][4] cacheDataOut_WEST[4] 1130 FE_PHN223_N5401 clk 
+ TLATXLTS 
XdataOut_Concatenated_reg[3][3] cacheDataOut_WEST[3] 1131 N5400 clk TLATXLTS 
XdataOut_Concatenated_reg[3][2] cacheDataOut_WEST[2] 1132 FE_PHN224_N5399 clk 
+ TLATXLTS 
XdataOut_Concatenated_reg[3][1] cacheDataOut_WEST[1] 1133 N5398 clk TLATXLTS 
XdataOut_Concatenated_reg[3][0] cacheDataOut_WEST[0] 1134 FE_PHN220_N5397 clk 
+ TLATXLTS 
XdataOut_Concatenated_reg[2][5] cacheDataOut_EAST[5] 1135 FE_PHN238_N5394 clk 
+ TLATXLTS 
XdataOut_Concatenated_reg[2][4] cacheDataOut_EAST[4] 1136 FE_PHN239_N5393 clk 
+ TLATXLTS 
XdataOut_Concatenated_reg[2][3] cacheDataOut_EAST[3] 1137 FE_PHN242_N5392 clk 
+ TLATXLTS 
XdataOut_Concatenated_reg[2][2] cacheDataOut_EAST[2] 1138 FE_PHN241_N5391 clk 
+ TLATXLTS 
XdataOut_Concatenated_reg[2][1] cacheDataOut_EAST[1] 1139 FE_PHN240_N5390 clk 
+ TLATXLTS 
XdataOut_Concatenated_reg[2][0] cacheDataOut_EAST[0] 1140 FE_PHN243_N5389 clk 
+ TLATXLTS 
XdataOut_Concatenated_reg[1][5] cacheDataOut_SOUTH[5] 1141 FE_PHN234_N5386 clk 
+ TLATXLTS 
XdataOut_Concatenated_reg[1][4] cacheDataOut_SOUTH[4] 1142 FE_PHN237_N5385 clk 
+ TLATXLTS 
XdataOut_Concatenated_reg[1][3] cacheDataOut_SOUTH[3] 1143 N5384 clk TLATXLTS 
XdataOut_Concatenated_reg[1][2] cacheDataOut_SOUTH[2] 1144 FE_PHN266_N5383 clk 
+ TLATXLTS 
XdataOut_Concatenated_reg[1][1] cacheDataOut_SOUTH[1] 1145 FE_PHN235_N5382 clk 
+ TLATXLTS 
XdataOut_Concatenated_reg[1][0] cacheDataOut_SOUTH[0] 1146 N5381 clk TLATXLTS 
XdataOut_Concatenated_reg[0][5] cacheDataOut_NORTH[5] 1147 N5378 clk TLATXLTS 
XdataOut_Concatenated_reg[0][4] cacheDataOut_NORTH[4] 1148 FE_PHN230_N5377 clk 
+ TLATXLTS 
XdataOut_Concatenated_reg[0][3] cacheDataOut_NORTH[3] 1149 FE_PHN227_N5376 clk 
+ TLATXLTS 
XdataOut_Concatenated_reg[0][2] cacheDataOut_NORTH[2] 1150 FE_PHN226_N5375 clk 
+ TLATXLTS 
XdataOut_Concatenated_reg[0][1] cacheDataOut_NORTH[1] 1151 N5374 clk TLATXLTS 
XdataOut_Concatenated_reg[0][0] cacheDataOut_NORTH[0] 1152 FE_PHN225_N5373 clk 
+ TLATXLTS 
XrequesterAddressOut_Concatenated_reg[3][3] requesterAddressOut_WEST[3] clk 
+ n1171 DFFQX1TS 
XrequesterAddressOut_Concatenated_reg[3][2] requesterAddressOut_WEST[2] clk 
+ n1170 DFFQX1TS 
XrequesterAddressOut_Concatenated_reg[3][1] requesterAddressOut_WEST[1] clk 
+ n1169 DFFQX1TS 
XrequesterAddressOut_Concatenated_reg[2][3] requesterAddressOut_EAST[3] clk 
+ n1167 DFFQX1TS 
XrequesterAddressOut_Concatenated_reg[2][2] requesterAddressOut_EAST[2] clk 
+ n1166 DFFQX1TS 
XrequesterAddressOut_Concatenated_reg[2][1] requesterAddressOut_EAST[1] clk 
+ n1165 DFFQX1TS 
XrequesterAddressOut_Concatenated_reg[1][3] requesterAddressOut_SOUTH[3] clk 
+ n1163 DFFQX1TS 
XrequesterAddressOut_Concatenated_reg[1][2] requesterAddressOut_SOUTH[2] clk 
+ n1162 DFFQX1TS 
XrequesterAddressOut_Concatenated_reg[1][1] requesterAddressOut_SOUTH[1] clk 
+ n1161 DFFQX1TS 
XrequesterAddressOut_Concatenated_reg[3][0] requesterAddressOut_WEST[0] clk 
+ n1168 DFFQX1TS 
XrequesterAddressOut_Concatenated_reg[2][0] requesterAddressOut_EAST[0] clk 
+ n1164 DFFQX1TS 
XrequesterAddressOut_Concatenated_reg[1][0] requesterAddressOut_SOUTH[0] clk 
+ n1160 DFFQX1TS 
XrequesterAddressOut_Concatenated_reg[0][3] requesterAddressOut_NORTH[3] clk 
+ n1159 DFFQX1TS 
XrequesterAddressOut_Concatenated_reg[0][2] requesterAddressOut_NORTH[2] clk 
+ n1158 DFFQX1TS 
XrequesterAddressOut_Concatenated_reg[0][1] requesterAddressOut_NORTH[1] clk 
+ n1157 DFFQX1TS 
XrequesterAddressOut_Concatenated_reg[0][0] requesterAddressOut_NORTH[0] clk 
+ n1156 DFFQX1TS 
XprevRequesterPort_A_reg[1] n4 n17 clk n1355 VDD VDD DFFNSRX1TS 
XprevRequesterPort_A_reg[0] prevRequesterPort_A[0] n6 clk n1356 VDD VDD 
+ DFFNSRX1TS 
XprevRequesterPort_B_reg[1] prevRequesterPort_B[1] n5 clk n1357 VDD VDD 
+ DFFNSRX1TS 
XprevRequesterPort_B_reg[0] n7 n19 clk n1358 VDD VDD DFFNSRX1TS 
XmemWrite_B_reg memWrite_B 1153 clk n1202 VDD VDD DFFNSRX1TS 
XmemWrite_A_reg memWrite_A 1154 clk n1181 VDD VDD DFFNSRX1TS 
XcacheDataIn_A_reg[5] cacheDataIn_A[5] 1155 clk n1196 VDD VDD DFFNSRX1TS 
XcacheDataIn_A_reg[4] cacheDataIn_A[4] 1156 clk n1197 VDD VDD DFFNSRX1TS 
XcacheDataIn_A_reg[3] cacheDataIn_A[3] 1157 clk n1198 VDD VDD DFFNSRX1TS 
XcacheDataIn_A_reg[2] cacheDataIn_A[2] 1158 clk n1199 VDD VDD DFFNSRX1TS 
XcacheDataIn_A_reg[1] cacheDataIn_A[1] 1159 clk n1200 VDD VDD DFFNSRX1TS 
XcacheDataIn_A_reg[0] cacheDataIn_A[0] 1160 clk n1201 VDD VDD DFFNSRX1TS 
XcacheAddressIn_B_reg[7] cacheAddressIn_B[7] 1161 clk n1195 VDD VDD DFFNSRX1TS 
XcacheAddressIn_B_reg[6] cacheAddressIn_B[6] 1162 clk n1194 VDD VDD DFFNSRX1TS 
XcacheAddressIn_B_reg[5] cacheAddressIn_B[5] 1163 clk n1193 VDD VDD DFFNSRX1TS 
XcacheAddressIn_B_reg[4] cacheAddressIn_B[4] 1164 clk n1192 VDD VDD DFFNSRX1TS 
XcacheAddressIn_B_reg[3] cacheAddressIn_B[3] 1165 clk n1191 VDD VDD DFFNSRX1TS 
XcacheAddressIn_B_reg[2] cacheAddressIn_B[2] 1166 clk n1190 VDD VDD DFFNSRX1TS 
XcacheAddressIn_B_reg[1] cacheAddressIn_B[1] 1167 clk n1189 VDD VDD DFFNSRX1TS 
XcacheAddressIn_B_reg[0] cacheAddressIn_B[0] 1168 clk n1188 VDD VDD DFFNSRX1TS 
XcacheDataIn_B_reg[5] cacheDataIn_B[5] 1169 clk n1187 VDD VDD DFFNSRX1TS 
XcacheDataIn_B_reg[4] cacheDataIn_B[4] 1170 clk n1186 VDD VDD DFFNSRX1TS 
XcacheDataIn_B_reg[3] cacheDataIn_B[3] 1171 clk n1185 VDD VDD DFFNSRX1TS 
XcacheDataIn_B_reg[2] cacheDataIn_B[2] 1172 clk n1184 VDD VDD DFFNSRX1TS 
XcacheDataIn_B_reg[1] cacheDataIn_B[1] 1173 clk n1183 VDD VDD DFFNSRX1TS 
XcacheDataIn_B_reg[0] cacheDataIn_B[0] 1174 clk n1182 VDD VDD DFFNSRX1TS 
XcacheAddressIn_A_reg[7] cacheAddressIn_A[7] 1175 clk n1180 VDD VDD DFFNSRX1TS 
XcacheAddressIn_A_reg[6] cacheAddressIn_A[6] 1176 clk n1179 VDD VDD DFFNSRX1TS 
XcacheAddressIn_A_reg[5] cacheAddressIn_A[5] 1177 clk n1178 VDD VDD DFFNSRX1TS 
XcacheAddressIn_A_reg[4] cacheAddressIn_A[4] 1178 clk n1177 VDD VDD DFFNSRX1TS 
XcacheAddressIn_A_reg[3] cacheAddressIn_A[3] 1179 clk n1176 VDD VDD DFFNSRX1TS 
XcacheAddressIn_A_reg[2] cacheAddressIn_A[2] 1180 clk n1175 VDD VDD DFFNSRX1TS 
XcacheAddressIn_A_reg[1] cacheAddressIn_A[1] 1181 clk n1174 VDD VDD DFFNSRX1TS 
XcacheAddressIn_A_reg[0] cacheAddressIn_A[0] 1182 clk n1173 VDD VDD DFFNSRX1TS 
XnextEmptyBuffer_reg[2] n834 n830 clk n1209 VDD VDD DFFNSRX1TS 
XisWrite_reg[5] isWrite[5] n833 clk n1214 VDD VDD DFFNSRX1TS 
XprevRequesterAddress_B_reg[2] prevRequesterAddress_B[2] n827 clk n1360 VDD VDD 
+ DFFNSRX1TS 
XprevRequesterAddress_B_reg[1] prevRequesterAddress_B[1] n828 clk n1361 VDD VDD 
+ DFFNSRX1TS 
XprevRequesterAddress_B_reg[0] prevRequesterAddress_B[0] n829 clk n1362 VDD VDD 
+ DFFNSRX1TS 
XprevRequesterAddress_B_reg[3] prevRequesterAddress_B[3] n826 clk n1359 VDD VDD 
+ DFFNSRX1TS 
XisWrite_reg[1] isWrite[1] n832 clk n1218 VDD VDD DFFNSRX1TS 
XU4 n39 N741 FE_DBTN182_n35 NOR2XLTS 
XU5 n35 n50 n834 NOR2XLTS 
XU6 n138 n41 n137 NOR2XLTS 
XU8 n674 memWrite_NORTH INVX2TS 
XU9 n633 n646 INVX2TS 
XU12 n501 n34 INVX2TS 
XU13 n192 prevRequesterPort_A[0] n191 NOR2XLTS 
XU15 n346 n345 n348 n353 NOR3BX1TS 
XU16 n348 n349 n351 NAND2X1TS 
XU19 n352 reset n351 NOR2X1TS 
XU20 n13 n633 n45 XOR2X1TS 
XU22 n51 n501 n32 NOR2X1TS 
XU23 n672 n512 n579 NOR2X1TS 
XU24 n32 memRead_EAST memWrite_EAST NOR2X1TS 
XU25 n3 n26 n193 n7 NAND3X1TS 
XU26 n33 memRead_NORTH memWrite_NORTH NOR2X1TS 
XU27 n41 n32 n47 NOR2X1TS 
XU28 n440 FE_DBTN184_n18 n16 n46 NOR3XLTS 
XU29 n341 n333 n40 XOR2XLTS 
XU30 n575 n51 n343 n77 NAND3XLTS 
XU31 n342 n32 n77 NOR2XLTS 
XU32 n337 n20 N742 n579 NAND3XLTS 
XU33 n48 n40 n47 NOR2XLTS 
XU34 n653 n33 n518 n673 n46 AOI211XLTS 
XU35 n673 FE_DBTN185_n16 FE_DBTN184_n18 n515 NOR3XLTS 
XU36 n436 n32 n18 n512 n579 NOR4BXLTS 
XU37 n514 memRead_SOUTH memWrite_SOUTH NOR2X1TS 
XU38 n340 FE_DBTN184_n18 n80 NOR2XLTS 
XU39 n353 n33 n40 n338 n337 AOI211XLTS 
XU40 n343 n14 n78 NOR2XLTS 
XU42 n644 n16 n134 NAND2X1TS 
XU43 n642 FE_DBTN184_n18 n640 NOR2XLTS 
XU44 n676 memWrite_SOUTH INVX2TS 
XU45 n651 n793 n39 n673 NAND3XLTS 
XU46 n524 n672 n32 n677 NOR3BXLTS 
XU48 n623 n18 n581 n536 NAND3XLTS 
XU49 n354 n353 n793 CLKAND2X2TS 
XU50 n461 cacheAddressIn_EAST[5] INVX2TS 
XU51 n465 cacheAddressIn_EAST[6] INVX2TS 
XU52 n53 n575 n440 n254 NOR3BXLTS 
XU53 n254 n46 reset OR2X1TS 
XU54 n611 n622 n54 n610 OAI21XLTS 
XU55 n1278 n445 n831 n444 n443 OAI211XLTS 
XU56 n1279 reset n449 n448 OAI21XLTS 
XU57 n78 n40 n433 n433 n40 AOI2BB2XLTS 
XU58 n433 n34 n672 NOR2X1TS 
XU59 n83 n14 n342 CLKAND2X2TS 
XU60 n28 n7 n193 n27 NOR3BXLTS 
XU61 n23 n193 n7 n21 NOR3BXLTS 
XU62 n622 memWrite_WEST INVX2TS 
XU63 n609 n18 FE_DBTN185_n16 FE_DBTN187_n13 n46 AOI31XLTS 
XU64 n241 n133 n500 NOR2XLTS 
XU65 n137 FE_DBTN173_n254 n134 n681 NAND3XLTS 
XU66 n85 n84 n793 CLKAND2X2TS 
XU67 n160 cacheAddressIn_EAST[4] INVX2TS 
XU68 n164 cacheAddressIn_EAST[7] INVX2TS 
XU69 n544 n609 n36 OR2X1TS 
XU70 n648 n650 n649 n647 OAI21XLTS 
XU71 n627 memRead_EAST memRead_SOUTH n674 n676 memRead_EAST OAI32X1TS 
XU72 n1173 n774 n773 n772 NAND3XLTS 
XU73 n1174 n766 n765 n764 NAND3XLTS 
XU74 n1175 n758 n757 n756 NAND3XLTS 
XU75 n1176 n750 n749 n748 NAND3XLTS 
XU76 n1177 n742 n741 n740 NAND3XLTS 
XU77 n1178 n736 n735 n734 NAND3XLTS 
XU78 n1179 n730 n729 n728 NAND3XLTS 
XU79 n1180 n725 n724 n723 NAND3XLTS 
XU80 n1201 n689 n688 n687 NAND3XLTS 
XU81 n1200 n694 n693 n692 NAND3XLTS 
XU82 n1199 n698 n697 n696 NAND3XLTS 
XU83 n1198 n705 n704 n703 NAND3XLTS 
XU84 n1197 n710 n709 n708 NAND3XLTS 
XU85 n1196 n716 n715 n714 NAND3XLTS 
XU86 n1202 FE_DBTN175_n681 memWrite_B n681 n680 AO22XLTS 
XU87 n1358 n501 n500 n499 n498 OAI211XLTS 